version 2
run General-0-20210610-19:37:41-2748
attr configname General
attr datetime 20210610-19:37:41
attr experiment General
attr inifile loRaNetworkTest.ini
attr iterationvars "$0=\"avg\""
attr iterationvarsf avg-
attr measurement "$0=\"avg\""
attr network LoRaNetworkTest
attr processid 2748
attr repetition 0
attr replication #0
attr resultdir results
attr runnumber 0
attr seedset 0
param **.numberOfGateways 1
param **.loRaGW[0].numUdpApps 1
param **.loRaGW[0].packetForwarder.localPort 2000
param **.loRaGW[0].packetForwarder.destPort 1000
param **.loRaGW[0].packetForwarder.destAddresses "\"networkServer\""
param **.loRaGW[0].packetForwarder.indexNumber 0
param **.loRaGW[1].numUdpApps 1
param **.loRaGW[1].packetForwarder.localPort 2000
param **.loRaGW[1].packetForwarder.destPort 1000
param **.loRaGW[1].packetForwarder.destAddresses "\"networkServer\""
param **.loRaGW[1].packetForwarder.indexNumber 1
param **.networkServer.numUdpApps 1
param **.networkServer.**.evaluateADRinServer false
param **.networkServer.udpApp[0].typename "\"NetworkServerApp\""
param **.networkServer.udpApp[0].destAddresses "\"loRaGW[0]\""
param **.networkServer.udpApp[0].destPort 2000
param **.networkServer.udpApp[0].localPort 1000
param **.networkServer.udpApp[0].adrMethod "\"avg\""
param **.numberOfNodes 10
param **.numberOfPacketsToSend 0
param **.timeToFirstPacket exponential(100s)
param **.timeToNextPacket exponential(100s)
param **.alohaChannelModel false
param **.loRaNodes[*].**.initFromDisplayString false
param **.loRaNodes[*].**.evaluateADRinNode false
param **.loRaNodes[*].**initialLoRaSF intuniform(7,12)
param **.loRaNodes[*].**initialLoRaBW "125 kHz"
param **.loRaNodes[*].**initialLoRaCR 4
param **.loRaNodes[*].**initialLoRaTP "(2dBm + 3dBm*intuniform(0,4))"
param **.loRaNodes[*].**.initialX "uniform(0m, 480m)"
param **.loRaNodes[*].**.initialY "uniform(0m, 480m)"
param **.LoRaGWNic.radio.iAmGateway true
param **.loRaGW[*].**.initFromDisplayString false
param **.loRaGW[0].**.initialX 240m
param **.loRaGW[0].**.initialY 240m
param **.loRaNodes[*].LoRaNic.radio.energyConsumerType "\"LoRaEnergyConsumer\""
param **.loRaNodes[*].**.energySourceModule "\"IdealEpEnergyStorage\""
param **.loRaNodes[*].LoRaNic.radio.energyConsumer.configFile "xmldoc(\"energyConsumptionParameters.xml\")"
param **.sigma 0
param **.constraintAreaMinX 0m
param **.constraintAreaMinY 0m
param **.constraintAreaMinZ 0m
param **.constraintAreaMaxX 480m
param **.constraintAreaMaxY 480m
param **.constraintAreaMaxZ 0m
param LoRaNetworkTest.**.radio.separateTransmissionParts false
param LoRaNetworkTest.**.radio.separateReceptionParts false
param **.delayer.config "xmldoc(\"cloudDelays.xml\")"
param **.radio.radioMediumModule "\"LoRaMedium\""
param **.LoRaMedium.pathLossType "\"LoRaLogNormalShadowing\""
param **.minInterferenceTime 0s
param **.displayAddresses false

scalar LoRaNetworkTest.loRaNodes[0].LoRaNic.mac numRetry 0
scalar LoRaNetworkTest.loRaNodes[0].LoRaNic.mac numSentWithoutRetry 0
scalar LoRaNetworkTest.loRaNodes[0].LoRaNic.mac numGivenUp 0
scalar LoRaNetworkTest.loRaNodes[0].LoRaNic.mac numSent 4054
scalar LoRaNetworkTest.loRaNodes[0].LoRaNic.mac numReceived 0
scalar LoRaNetworkTest.loRaNodes[0].LoRaNic.mac numSentBroadcast 0
scalar LoRaNetworkTest.loRaNodes[0].LoRaNic.mac numReceivedBroadcast 0
scalar LoRaNetworkTest.loRaNodes[0].LoRaNic.radio.transmitter LoRaTransmissionCreated:count 3476
attr source LoRaTransmissionCreated
scalar LoRaNetworkTest.loRaNodes[0].LoRaNic.radio.receiver numCollisions 0
scalar LoRaNetworkTest.loRaNodes[0].LoRaNic.radio.receiver rcvBelowSensitivity 55
scalar LoRaNetworkTest.loRaNodes[0].LoRaNic.radio.receiver LoRaReceptionCollision:count 0
attr source LoRaReceptionCollision
scalar LoRaNetworkTest.loRaNodes[0].LoRaNic.radio.energyConsumer totalEnergyConsumed 419.98085682313
statistic LoRaNetworkTest.loRaNodes[0].LoRaNic.radio symbolErrorRate:histogram
field count 0
field mean nan
field stddev nan
field min nan
field max nan
field sum 0
field sqrsum 0
attr source symbolErrorRate
attr title "Symbol error rate, histogram"
bin	-inf	0
bin	-0.5	0
bin	-0.46666666666667	0
bin	-0.43333333333333	0
bin	-0.4	0
bin	-0.36666666666667	0
bin	-0.33333333333333	0
bin	-0.3	0
bin	-0.26666666666667	0
bin	-0.23333333333333	0
bin	-0.2	0
bin	-0.16666666666667	0
bin	-0.13333333333333	0
bin	-0.1	0
bin	-0.066666666666667	0
bin	-0.033333333333333	0
bin	-6.9388939039072e-018	0
bin	0.033333333333333	0
bin	0.066666666666667	0
bin	0.1	0
bin	0.13333333333333	0
bin	0.16666666666667	0
bin	0.2	0
bin	0.23333333333333	0
bin	0.26666666666667	0
bin	0.3	0
bin	0.33333333333333	0
bin	0.36666666666667	0
bin	0.4	0
bin	0.43333333333333	0
bin	0.46666666666667	0
bin	0.5	0
statistic LoRaNetworkTest.loRaNodes[0].LoRaNic.radio bitErrorRate:histogram
field count 0
field mean nan
field stddev nan
field min nan
field max nan
field sum 0
field sqrsum 0
attr source bitErrorRate
attr title "Bit error rate, histogram"
bin	-inf	0
bin	-0.5	0
bin	-0.46666666666667	0
bin	-0.43333333333333	0
bin	-0.4	0
bin	-0.36666666666667	0
bin	-0.33333333333333	0
bin	-0.3	0
bin	-0.26666666666667	0
bin	-0.23333333333333	0
bin	-0.2	0
bin	-0.16666666666667	0
bin	-0.13333333333333	0
bin	-0.1	0
bin	-0.066666666666667	0
bin	-0.033333333333333	0
bin	-6.9388939039072e-018	0
bin	0.033333333333333	0
bin	0.066666666666667	0
bin	0.1	0
bin	0.13333333333333	0
bin	0.16666666666667	0
bin	0.2	0
bin	0.23333333333333	0
bin	0.26666666666667	0
bin	0.3	0
bin	0.33333333333333	0
bin	0.36666666666667	0
bin	0.4	0
bin	0.43333333333333	0
bin	0.46666666666667	0
bin	0.5	0
statistic LoRaNetworkTest.loRaNodes[0].LoRaNic.radio packetErrorRate:histogram
field count 0
field mean nan
field stddev nan
field min nan
field max nan
field sum 0
field sqrsum 0
attr source packetErrorRate
attr title "Packet error rate, histogram"
bin	-inf	0
bin	-0.5	0
bin	-0.46666666666667	0
bin	-0.43333333333333	0
bin	-0.4	0
bin	-0.36666666666667	0
bin	-0.33333333333333	0
bin	-0.3	0
bin	-0.26666666666667	0
bin	-0.23333333333333	0
bin	-0.2	0
bin	-0.16666666666667	0
bin	-0.13333333333333	0
bin	-0.1	0
bin	-0.066666666666667	0
bin	-0.033333333333333	0
bin	-6.9388939039072e-018	0
bin	0.033333333333333	0
bin	0.066666666666667	0
bin	0.1	0
bin	0.13333333333333	0
bin	0.16666666666667	0
bin	0.2	0
bin	0.23333333333333	0
bin	0.26666666666667	0
bin	0.3	0
bin	0.33333333333333	0
bin	0.36666666666667	0
bin	0.4	0
bin	0.43333333333333	0
bin	0.46666666666667	0
bin	0.5	0
statistic LoRaNetworkTest.loRaNodes[0].LoRaNic.radio minSNIR:histogram
field count 0
field mean nan
field stddev nan
field min nan
field max nan
field sum 0
field sqrsum 0
attr source minSNIR
attr title "Min SNIR, histogram"
bin	-inf	0
bin	-0.5	0
bin	-0.46666666666667	0
bin	-0.43333333333333	0
bin	-0.4	0
bin	-0.36666666666667	0
bin	-0.33333333333333	0
bin	-0.3	0
bin	-0.26666666666667	0
bin	-0.23333333333333	0
bin	-0.2	0
bin	-0.16666666666667	0
bin	-0.13333333333333	0
bin	-0.1	0
bin	-0.066666666666667	0
bin	-0.033333333333333	0
bin	-6.9388939039072e-018	0
bin	0.033333333333333	0
bin	0.066666666666667	0
bin	0.1	0
bin	0.13333333333333	0
bin	0.16666666666667	0
bin	0.2	0
bin	0.23333333333333	0
bin	0.26666666666667	0
bin	0.3	0
bin	0.33333333333333	0
bin	0.36666666666667	0
bin	0.4	0
bin	0.43333333333333	0
bin	0.46666666666667	0
bin	0.5	0
scalar LoRaNetworkTest.loRaNodes[0].LoRaNic.radio transmissionState:count 13904
attr interpolationmode sample-hold
attr source transmissionStateChanged
attr title "Radio transmission state, count"
scalar LoRaNetworkTest.loRaNodes[0].LoRaNic.radio receptionState:count 15608
attr interpolationmode sample-hold
attr source receptionStateChanged
attr title "Radio reception state, count"
scalar LoRaNetworkTest.loRaNodes[0].LoRaNic.radio radioMode:count 22134
attr interpolationmode sample-hold
attr source radioModeChanged
attr title "Radio mode, count"
scalar LoRaNetworkTest.loRaNodes[0].SimpleLoRaApp positionX 263.43048110604
scalar LoRaNetworkTest.loRaNodes[0].SimpleLoRaApp positionY 284.56541586667
scalar LoRaNetworkTest.loRaNodes[0].SimpleLoRaApp finalTP 2
scalar LoRaNetworkTest.loRaNodes[0].SimpleLoRaApp finalSF 10
scalar LoRaNetworkTest.loRaNodes[0].SimpleLoRaApp sentPackets 3476
scalar LoRaNetworkTest.loRaNodes[0].SimpleLoRaApp receivedADRCommands 0
scalar LoRaNetworkTest.loRaNodes[0].SimpleLoRaApp LoRa_AppPacketSent:count 3476
attr source LoRa_AppPacketSent
scalar LoRaNetworkTest.loRaNodes[1].LoRaNic.mac numRetry 0
scalar LoRaNetworkTest.loRaNodes[1].LoRaNic.mac numSentWithoutRetry 0
scalar LoRaNetworkTest.loRaNodes[1].LoRaNic.mac numGivenUp 0
scalar LoRaNetworkTest.loRaNodes[1].LoRaNic.mac numSent 4076
scalar LoRaNetworkTest.loRaNodes[1].LoRaNic.mac numReceived 0
scalar LoRaNetworkTest.loRaNodes[1].LoRaNic.mac numSentBroadcast 0
scalar LoRaNetworkTest.loRaNodes[1].LoRaNic.mac numReceivedBroadcast 0
scalar LoRaNetworkTest.loRaNodes[1].LoRaNic.radio.transmitter LoRaTransmissionCreated:count 3501
attr source LoRaTransmissionCreated
scalar LoRaNetworkTest.loRaNodes[1].LoRaNic.radio.receiver numCollisions 0
scalar LoRaNetworkTest.loRaNodes[1].LoRaNic.radio.receiver rcvBelowSensitivity 43
scalar LoRaNetworkTest.loRaNodes[1].LoRaNic.radio.receiver LoRaReceptionCollision:count 0
attr source LoRaReceptionCollision
scalar LoRaNetworkTest.loRaNodes[1].LoRaNic.radio.energyConsumer totalEnergyConsumed 429.27426499711
statistic LoRaNetworkTest.loRaNodes[1].LoRaNic.radio symbolErrorRate:histogram
field count 0
field mean nan
field stddev nan
field min nan
field max nan
field sum 0
field sqrsum 0
attr source symbolErrorRate
attr title "Symbol error rate, histogram"
bin	-inf	0
bin	-0.5	0
bin	-0.46666666666667	0
bin	-0.43333333333333	0
bin	-0.4	0
bin	-0.36666666666667	0
bin	-0.33333333333333	0
bin	-0.3	0
bin	-0.26666666666667	0
bin	-0.23333333333333	0
bin	-0.2	0
bin	-0.16666666666667	0
bin	-0.13333333333333	0
bin	-0.1	0
bin	-0.066666666666667	0
bin	-0.033333333333333	0
bin	-6.9388939039072e-018	0
bin	0.033333333333333	0
bin	0.066666666666667	0
bin	0.1	0
bin	0.13333333333333	0
bin	0.16666666666667	0
bin	0.2	0
bin	0.23333333333333	0
bin	0.26666666666667	0
bin	0.3	0
bin	0.33333333333333	0
bin	0.36666666666667	0
bin	0.4	0
bin	0.43333333333333	0
bin	0.46666666666667	0
bin	0.5	0
statistic LoRaNetworkTest.loRaNodes[1].LoRaNic.radio bitErrorRate:histogram
field count 0
field mean nan
field stddev nan
field min nan
field max nan
field sum 0
field sqrsum 0
attr source bitErrorRate
attr title "Bit error rate, histogram"
bin	-inf	0
bin	-0.5	0
bin	-0.46666666666667	0
bin	-0.43333333333333	0
bin	-0.4	0
bin	-0.36666666666667	0
bin	-0.33333333333333	0
bin	-0.3	0
bin	-0.26666666666667	0
bin	-0.23333333333333	0
bin	-0.2	0
bin	-0.16666666666667	0
bin	-0.13333333333333	0
bin	-0.1	0
bin	-0.066666666666667	0
bin	-0.033333333333333	0
bin	-6.9388939039072e-018	0
bin	0.033333333333333	0
bin	0.066666666666667	0
bin	0.1	0
bin	0.13333333333333	0
bin	0.16666666666667	0
bin	0.2	0
bin	0.23333333333333	0
bin	0.26666666666667	0
bin	0.3	0
bin	0.33333333333333	0
bin	0.36666666666667	0
bin	0.4	0
bin	0.43333333333333	0
bin	0.46666666666667	0
bin	0.5	0
statistic LoRaNetworkTest.loRaNodes[1].LoRaNic.radio packetErrorRate:histogram
field count 0
field mean nan
field stddev nan
field min nan
field max nan
field sum 0
field sqrsum 0
attr source packetErrorRate
attr title "Packet error rate, histogram"
bin	-inf	0
bin	-0.5	0
bin	-0.46666666666667	0
bin	-0.43333333333333	0
bin	-0.4	0
bin	-0.36666666666667	0
bin	-0.33333333333333	0
bin	-0.3	0
bin	-0.26666666666667	0
bin	-0.23333333333333	0
bin	-0.2	0
bin	-0.16666666666667	0
bin	-0.13333333333333	0
bin	-0.1	0
bin	-0.066666666666667	0
bin	-0.033333333333333	0
bin	-6.9388939039072e-018	0
bin	0.033333333333333	0
bin	0.066666666666667	0
bin	0.1	0
bin	0.13333333333333	0
bin	0.16666666666667	0
bin	0.2	0
bin	0.23333333333333	0
bin	0.26666666666667	0
bin	0.3	0
bin	0.33333333333333	0
bin	0.36666666666667	0
bin	0.4	0
bin	0.43333333333333	0
bin	0.46666666666667	0
bin	0.5	0
statistic LoRaNetworkTest.loRaNodes[1].LoRaNic.radio minSNIR:histogram
field count 0
field mean nan
field stddev nan
field min nan
field max nan
field sum 0
field sqrsum 0
attr source minSNIR
attr title "Min SNIR, histogram"
bin	-inf	0
bin	-0.5	0
bin	-0.46666666666667	0
bin	-0.43333333333333	0
bin	-0.4	0
bin	-0.36666666666667	0
bin	-0.33333333333333	0
bin	-0.3	0
bin	-0.26666666666667	0
bin	-0.23333333333333	0
bin	-0.2	0
bin	-0.16666666666667	0
bin	-0.13333333333333	0
bin	-0.1	0
bin	-0.066666666666667	0
bin	-0.033333333333333	0
bin	-6.9388939039072e-018	0
bin	0.033333333333333	0
bin	0.066666666666667	0
bin	0.1	0
bin	0.13333333333333	0
bin	0.16666666666667	0
bin	0.2	0
bin	0.23333333333333	0
bin	0.26666666666667	0
bin	0.3	0
bin	0.33333333333333	0
bin	0.36666666666667	0
bin	0.4	0
bin	0.43333333333333	0
bin	0.46666666666667	0
bin	0.5	0
scalar LoRaNetworkTest.loRaNodes[1].LoRaNic.radio transmissionState:count 14004
attr interpolationmode sample-hold
attr source transmissionStateChanged
attr title "Radio transmission state, count"
scalar LoRaNetworkTest.loRaNodes[1].LoRaNic.radio receptionState:count 15884
attr interpolationmode sample-hold
attr source receptionStateChanged
attr title "Radio reception state, count"
scalar LoRaNetworkTest.loRaNodes[1].LoRaNic.radio radioMode:count 22416
attr interpolationmode sample-hold
attr source radioModeChanged
attr title "Radio mode, count"
scalar LoRaNetworkTest.loRaNodes[1].SimpleLoRaApp positionX 411.81389752775
scalar LoRaNetworkTest.loRaNodes[1].SimpleLoRaApp positionY 261.54392514378
scalar LoRaNetworkTest.loRaNodes[1].SimpleLoRaApp finalTP 5
scalar LoRaNetworkTest.loRaNodes[1].SimpleLoRaApp finalSF 10
scalar LoRaNetworkTest.loRaNodes[1].SimpleLoRaApp sentPackets 3501
scalar LoRaNetworkTest.loRaNodes[1].SimpleLoRaApp receivedADRCommands 0
scalar LoRaNetworkTest.loRaNodes[1].SimpleLoRaApp LoRa_AppPacketSent:count 3501
attr source LoRa_AppPacketSent
scalar LoRaNetworkTest.loRaNodes[2].LoRaNic.mac numRetry 0
scalar LoRaNetworkTest.loRaNodes[2].LoRaNic.mac numSentWithoutRetry 0
scalar LoRaNetworkTest.loRaNodes[2].LoRaNic.mac numGivenUp 0
scalar LoRaNetworkTest.loRaNodes[2].LoRaNic.mac numSent 5625
scalar LoRaNetworkTest.loRaNodes[2].LoRaNic.mac numReceived 0
scalar LoRaNetworkTest.loRaNodes[2].LoRaNic.mac numSentBroadcast 0
scalar LoRaNetworkTest.loRaNodes[2].LoRaNic.mac numReceivedBroadcast 0
scalar LoRaNetworkTest.loRaNodes[2].LoRaNic.radio.transmitter LoRaTransmissionCreated:count 4824
attr source LoRaTransmissionCreated
scalar LoRaNetworkTest.loRaNodes[2].LoRaNic.radio.receiver numCollisions 0
scalar LoRaNetworkTest.loRaNodes[2].LoRaNic.radio.receiver rcvBelowSensitivity 0
scalar LoRaNetworkTest.loRaNodes[2].LoRaNic.radio.receiver LoRaReceptionCollision:count 0
attr source LoRaReceptionCollision
scalar LoRaNetworkTest.loRaNodes[2].LoRaNic.radio.energyConsumer totalEnergyConsumed 398.73077929918
statistic LoRaNetworkTest.loRaNodes[2].LoRaNic.radio symbolErrorRate:histogram
field count 0
field mean nan
field stddev nan
field min nan
field max nan
field sum 0
field sqrsum 0
attr source symbolErrorRate
attr title "Symbol error rate, histogram"
bin	-inf	0
bin	-0.5	0
bin	-0.46666666666667	0
bin	-0.43333333333333	0
bin	-0.4	0
bin	-0.36666666666667	0
bin	-0.33333333333333	0
bin	-0.3	0
bin	-0.26666666666667	0
bin	-0.23333333333333	0
bin	-0.2	0
bin	-0.16666666666667	0
bin	-0.13333333333333	0
bin	-0.1	0
bin	-0.066666666666667	0
bin	-0.033333333333333	0
bin	-6.9388939039072e-018	0
bin	0.033333333333333	0
bin	0.066666666666667	0
bin	0.1	0
bin	0.13333333333333	0
bin	0.16666666666667	0
bin	0.2	0
bin	0.23333333333333	0
bin	0.26666666666667	0
bin	0.3	0
bin	0.33333333333333	0
bin	0.36666666666667	0
bin	0.4	0
bin	0.43333333333333	0
bin	0.46666666666667	0
bin	0.5	0
statistic LoRaNetworkTest.loRaNodes[2].LoRaNic.radio bitErrorRate:histogram
field count 0
field mean nan
field stddev nan
field min nan
field max nan
field sum 0
field sqrsum 0
attr source bitErrorRate
attr title "Bit error rate, histogram"
bin	-inf	0
bin	-0.5	0
bin	-0.46666666666667	0
bin	-0.43333333333333	0
bin	-0.4	0
bin	-0.36666666666667	0
bin	-0.33333333333333	0
bin	-0.3	0
bin	-0.26666666666667	0
bin	-0.23333333333333	0
bin	-0.2	0
bin	-0.16666666666667	0
bin	-0.13333333333333	0
bin	-0.1	0
bin	-0.066666666666667	0
bin	-0.033333333333333	0
bin	-6.9388939039072e-018	0
bin	0.033333333333333	0
bin	0.066666666666667	0
bin	0.1	0
bin	0.13333333333333	0
bin	0.16666666666667	0
bin	0.2	0
bin	0.23333333333333	0
bin	0.26666666666667	0
bin	0.3	0
bin	0.33333333333333	0
bin	0.36666666666667	0
bin	0.4	0
bin	0.43333333333333	0
bin	0.46666666666667	0
bin	0.5	0
statistic LoRaNetworkTest.loRaNodes[2].LoRaNic.radio packetErrorRate:histogram
field count 0
field mean nan
field stddev nan
field min nan
field max nan
field sum 0
field sqrsum 0
attr source packetErrorRate
attr title "Packet error rate, histogram"
bin	-inf	0
bin	-0.5	0
bin	-0.46666666666667	0
bin	-0.43333333333333	0
bin	-0.4	0
bin	-0.36666666666667	0
bin	-0.33333333333333	0
bin	-0.3	0
bin	-0.26666666666667	0
bin	-0.23333333333333	0
bin	-0.2	0
bin	-0.16666666666667	0
bin	-0.13333333333333	0
bin	-0.1	0
bin	-0.066666666666667	0
bin	-0.033333333333333	0
bin	-6.9388939039072e-018	0
bin	0.033333333333333	0
bin	0.066666666666667	0
bin	0.1	0
bin	0.13333333333333	0
bin	0.16666666666667	0
bin	0.2	0
bin	0.23333333333333	0
bin	0.26666666666667	0
bin	0.3	0
bin	0.33333333333333	0
bin	0.36666666666667	0
bin	0.4	0
bin	0.43333333333333	0
bin	0.46666666666667	0
bin	0.5	0
statistic LoRaNetworkTest.loRaNodes[2].LoRaNic.radio minSNIR:histogram
field count 0
field mean nan
field stddev nan
field min nan
field max nan
field sum 0
field sqrsum 0
attr source minSNIR
attr title "Min SNIR, histogram"
bin	-inf	0
bin	-0.5	0
bin	-0.46666666666667	0
bin	-0.43333333333333	0
bin	-0.4	0
bin	-0.36666666666667	0
bin	-0.33333333333333	0
bin	-0.3	0
bin	-0.26666666666667	0
bin	-0.23333333333333	0
bin	-0.2	0
bin	-0.16666666666667	0
bin	-0.13333333333333	0
bin	-0.1	0
bin	-0.066666666666667	0
bin	-0.033333333333333	0
bin	-6.9388939039072e-018	0
bin	0.033333333333333	0
bin	0.066666666666667	0
bin	0.1	0
bin	0.13333333333333	0
bin	0.16666666666667	0
bin	0.2	0
bin	0.23333333333333	0
bin	0.26666666666667	0
bin	0.3	0
bin	0.33333333333333	0
bin	0.36666666666667	0
bin	0.4	0
bin	0.43333333333333	0
bin	0.46666666666667	0
bin	0.5	0
scalar LoRaNetworkTest.loRaNodes[2].LoRaNic.radio transmissionState:count 19296
attr interpolationmode sample-hold
attr source transmissionStateChanged
attr title "Radio transmission state, count"
scalar LoRaNetworkTest.loRaNodes[2].LoRaNic.radio receptionState:count 21728
attr interpolationmode sample-hold
attr source receptionStateChanged
attr title "Radio reception state, count"
scalar LoRaNetworkTest.loRaNodes[2].LoRaNic.radio radioMode:count 30768
attr interpolationmode sample-hold
attr source radioModeChanged
attr title "Radio mode, count"
scalar LoRaNetworkTest.loRaNodes[2].SimpleLoRaApp positionX 310.02917524427
scalar LoRaNetworkTest.loRaNodes[2].SimpleLoRaApp positionY 184.50321994722
scalar LoRaNetworkTest.loRaNodes[2].SimpleLoRaApp finalTP 2
scalar LoRaNetworkTest.loRaNodes[2].SimpleLoRaApp finalSF 7
scalar LoRaNetworkTest.loRaNodes[2].SimpleLoRaApp sentPackets 4824
scalar LoRaNetworkTest.loRaNodes[2].SimpleLoRaApp receivedADRCommands 0
scalar LoRaNetworkTest.loRaNodes[2].SimpleLoRaApp LoRa_AppPacketSent:count 4824
attr source LoRa_AppPacketSent
scalar LoRaNetworkTest.loRaNodes[3].LoRaNic.mac numRetry 0
scalar LoRaNetworkTest.loRaNodes[3].LoRaNic.mac numSentWithoutRetry 0
scalar LoRaNetworkTest.loRaNodes[3].LoRaNic.mac numGivenUp 0
scalar LoRaNetworkTest.loRaNodes[3].LoRaNic.mac numSent 5325
scalar LoRaNetworkTest.loRaNodes[3].LoRaNic.mac numReceived 0
scalar LoRaNetworkTest.loRaNodes[3].LoRaNic.mac numSentBroadcast 0
scalar LoRaNetworkTest.loRaNodes[3].LoRaNic.mac numReceivedBroadcast 0
scalar LoRaNetworkTest.loRaNodes[3].LoRaNic.radio.transmitter LoRaTransmissionCreated:count 4561
attr source LoRaTransmissionCreated
scalar LoRaNetworkTest.loRaNodes[3].LoRaNic.radio.receiver numCollisions 0
scalar LoRaNetworkTest.loRaNodes[3].LoRaNic.radio.receiver rcvBelowSensitivity 176
scalar LoRaNetworkTest.loRaNodes[3].LoRaNic.radio.receiver LoRaReceptionCollision:count 0
attr source LoRaReceptionCollision
scalar LoRaNetworkTest.loRaNodes[3].LoRaNic.radio.energyConsumer totalEnergyConsumed 403.49883377474
statistic LoRaNetworkTest.loRaNodes[3].LoRaNic.radio symbolErrorRate:histogram
field count 0
field mean nan
field stddev nan
field min nan
field max nan
field sum 0
field sqrsum 0
attr source symbolErrorRate
attr title "Symbol error rate, histogram"
bin	-inf	0
bin	-0.5	0
bin	-0.46666666666667	0
bin	-0.43333333333333	0
bin	-0.4	0
bin	-0.36666666666667	0
bin	-0.33333333333333	0
bin	-0.3	0
bin	-0.26666666666667	0
bin	-0.23333333333333	0
bin	-0.2	0
bin	-0.16666666666667	0
bin	-0.13333333333333	0
bin	-0.1	0
bin	-0.066666666666667	0
bin	-0.033333333333333	0
bin	-6.9388939039072e-018	0
bin	0.033333333333333	0
bin	0.066666666666667	0
bin	0.1	0
bin	0.13333333333333	0
bin	0.16666666666667	0
bin	0.2	0
bin	0.23333333333333	0
bin	0.26666666666667	0
bin	0.3	0
bin	0.33333333333333	0
bin	0.36666666666667	0
bin	0.4	0
bin	0.43333333333333	0
bin	0.46666666666667	0
bin	0.5	0
statistic LoRaNetworkTest.loRaNodes[3].LoRaNic.radio bitErrorRate:histogram
field count 0
field mean nan
field stddev nan
field min nan
field max nan
field sum 0
field sqrsum 0
attr source bitErrorRate
attr title "Bit error rate, histogram"
bin	-inf	0
bin	-0.5	0
bin	-0.46666666666667	0
bin	-0.43333333333333	0
bin	-0.4	0
bin	-0.36666666666667	0
bin	-0.33333333333333	0
bin	-0.3	0
bin	-0.26666666666667	0
bin	-0.23333333333333	0
bin	-0.2	0
bin	-0.16666666666667	0
bin	-0.13333333333333	0
bin	-0.1	0
bin	-0.066666666666667	0
bin	-0.033333333333333	0
bin	-6.9388939039072e-018	0
bin	0.033333333333333	0
bin	0.066666666666667	0
bin	0.1	0
bin	0.13333333333333	0
bin	0.16666666666667	0
bin	0.2	0
bin	0.23333333333333	0
bin	0.26666666666667	0
bin	0.3	0
bin	0.33333333333333	0
bin	0.36666666666667	0
bin	0.4	0
bin	0.43333333333333	0
bin	0.46666666666667	0
bin	0.5	0
statistic LoRaNetworkTest.loRaNodes[3].LoRaNic.radio packetErrorRate:histogram
field count 0
field mean nan
field stddev nan
field min nan
field max nan
field sum 0
field sqrsum 0
attr source packetErrorRate
attr title "Packet error rate, histogram"
bin	-inf	0
bin	-0.5	0
bin	-0.46666666666667	0
bin	-0.43333333333333	0
bin	-0.4	0
bin	-0.36666666666667	0
bin	-0.33333333333333	0
bin	-0.3	0
bin	-0.26666666666667	0
bin	-0.23333333333333	0
bin	-0.2	0
bin	-0.16666666666667	0
bin	-0.13333333333333	0
bin	-0.1	0
bin	-0.066666666666667	0
bin	-0.033333333333333	0
bin	-6.9388939039072e-018	0
bin	0.033333333333333	0
bin	0.066666666666667	0
bin	0.1	0
bin	0.13333333333333	0
bin	0.16666666666667	0
bin	0.2	0
bin	0.23333333333333	0
bin	0.26666666666667	0
bin	0.3	0
bin	0.33333333333333	0
bin	0.36666666666667	0
bin	0.4	0
bin	0.43333333333333	0
bin	0.46666666666667	0
bin	0.5	0
statistic LoRaNetworkTest.loRaNodes[3].LoRaNic.radio minSNIR:histogram
field count 0
field mean nan
field stddev nan
field min nan
field max nan
field sum 0
field sqrsum 0
attr source minSNIR
attr title "Min SNIR, histogram"
bin	-inf	0
bin	-0.5	0
bin	-0.46666666666667	0
bin	-0.43333333333333	0
bin	-0.4	0
bin	-0.36666666666667	0
bin	-0.33333333333333	0
bin	-0.3	0
bin	-0.26666666666667	0
bin	-0.23333333333333	0
bin	-0.2	0
bin	-0.16666666666667	0
bin	-0.13333333333333	0
bin	-0.1	0
bin	-0.066666666666667	0
bin	-0.033333333333333	0
bin	-6.9388939039072e-018	0
bin	0.033333333333333	0
bin	0.066666666666667	0
bin	0.1	0
bin	0.13333333333333	0
bin	0.16666666666667	0
bin	0.2	0
bin	0.23333333333333	0
bin	0.26666666666667	0
bin	0.3	0
bin	0.33333333333333	0
bin	0.36666666666667	0
bin	0.4	0
bin	0.43333333333333	0
bin	0.46666666666667	0
bin	0.5	0
scalar LoRaNetworkTest.loRaNodes[3].LoRaNic.radio transmissionState:count 18244
attr interpolationmode sample-hold
attr source transmissionStateChanged
attr title "Radio transmission state, count"
scalar LoRaNetworkTest.loRaNodes[3].LoRaNic.radio receptionState:count 20444
attr interpolationmode sample-hold
attr source receptionStateChanged
attr title "Radio reception state, count"
scalar LoRaNetworkTest.loRaNodes[3].LoRaNic.radio radioMode:count 29016
attr interpolationmode sample-hold
attr source radioModeChanged
attr title "Radio mode, count"
scalar LoRaNetworkTest.loRaNodes[3].SimpleLoRaApp positionX 130.87502136827
scalar LoRaNetworkTest.loRaNodes[3].SimpleLoRaApp positionY 184.05193023384
scalar LoRaNetworkTest.loRaNodes[3].SimpleLoRaApp finalTP 2
scalar LoRaNetworkTest.loRaNodes[3].SimpleLoRaApp finalSF 8
scalar LoRaNetworkTest.loRaNodes[3].SimpleLoRaApp sentPackets 4561
scalar LoRaNetworkTest.loRaNodes[3].SimpleLoRaApp receivedADRCommands 0
scalar LoRaNetworkTest.loRaNodes[3].SimpleLoRaApp LoRa_AppPacketSent:count 4561
attr source LoRa_AppPacketSent
scalar LoRaNetworkTest.loRaNodes[4].LoRaNic.mac numRetry 0
scalar LoRaNetworkTest.loRaNodes[4].LoRaNic.mac numSentWithoutRetry 0
scalar LoRaNetworkTest.loRaNodes[4].LoRaNic.mac numGivenUp 0
scalar LoRaNetworkTest.loRaNodes[4].LoRaNic.mac numSent 5312
scalar LoRaNetworkTest.loRaNodes[4].LoRaNic.mac numReceived 0
scalar LoRaNetworkTest.loRaNodes[4].LoRaNic.mac numSentBroadcast 0
scalar LoRaNetworkTest.loRaNodes[4].LoRaNic.mac numReceivedBroadcast 0
scalar LoRaNetworkTest.loRaNodes[4].LoRaNic.radio.transmitter LoRaTransmissionCreated:count 4543
attr source LoRaTransmissionCreated
scalar LoRaNetworkTest.loRaNodes[4].LoRaNic.radio.receiver numCollisions 0
scalar LoRaNetworkTest.loRaNodes[4].LoRaNic.radio.receiver rcvBelowSensitivity 189
scalar LoRaNetworkTest.loRaNodes[4].LoRaNic.radio.receiver LoRaReceptionCollision:count 0
attr source LoRaReceptionCollision
scalar LoRaNetworkTest.loRaNodes[4].LoRaNic.radio.energyConsumer totalEnergyConsumed 402.31100776853
statistic LoRaNetworkTest.loRaNodes[4].LoRaNic.radio symbolErrorRate:histogram
field count 0
field mean nan
field stddev nan
field min nan
field max nan
field sum 0
field sqrsum 0
attr source symbolErrorRate
attr title "Symbol error rate, histogram"
bin	-inf	0
bin	-0.5	0
bin	-0.46666666666667	0
bin	-0.43333333333333	0
bin	-0.4	0
bin	-0.36666666666667	0
bin	-0.33333333333333	0
bin	-0.3	0
bin	-0.26666666666667	0
bin	-0.23333333333333	0
bin	-0.2	0
bin	-0.16666666666667	0
bin	-0.13333333333333	0
bin	-0.1	0
bin	-0.066666666666667	0
bin	-0.033333333333333	0
bin	-6.9388939039072e-018	0
bin	0.033333333333333	0
bin	0.066666666666667	0
bin	0.1	0
bin	0.13333333333333	0
bin	0.16666666666667	0
bin	0.2	0
bin	0.23333333333333	0
bin	0.26666666666667	0
bin	0.3	0
bin	0.33333333333333	0
bin	0.36666666666667	0
bin	0.4	0
bin	0.43333333333333	0
bin	0.46666666666667	0
bin	0.5	0
statistic LoRaNetworkTest.loRaNodes[4].LoRaNic.radio bitErrorRate:histogram
field count 0
field mean nan
field stddev nan
field min nan
field max nan
field sum 0
field sqrsum 0
attr source bitErrorRate
attr title "Bit error rate, histogram"
bin	-inf	0
bin	-0.5	0
bin	-0.46666666666667	0
bin	-0.43333333333333	0
bin	-0.4	0
bin	-0.36666666666667	0
bin	-0.33333333333333	0
bin	-0.3	0
bin	-0.26666666666667	0
bin	-0.23333333333333	0
bin	-0.2	0
bin	-0.16666666666667	0
bin	-0.13333333333333	0
bin	-0.1	0
bin	-0.066666666666667	0
bin	-0.033333333333333	0
bin	-6.9388939039072e-018	0
bin	0.033333333333333	0
bin	0.066666666666667	0
bin	0.1	0
bin	0.13333333333333	0
bin	0.16666666666667	0
bin	0.2	0
bin	0.23333333333333	0
bin	0.26666666666667	0
bin	0.3	0
bin	0.33333333333333	0
bin	0.36666666666667	0
bin	0.4	0
bin	0.43333333333333	0
bin	0.46666666666667	0
bin	0.5	0
statistic LoRaNetworkTest.loRaNodes[4].LoRaNic.radio packetErrorRate:histogram
field count 0
field mean nan
field stddev nan
field min nan
field max nan
field sum 0
field sqrsum 0
attr source packetErrorRate
attr title "Packet error rate, histogram"
bin	-inf	0
bin	-0.5	0
bin	-0.46666666666667	0
bin	-0.43333333333333	0
bin	-0.4	0
bin	-0.36666666666667	0
bin	-0.33333333333333	0
bin	-0.3	0
bin	-0.26666666666667	0
bin	-0.23333333333333	0
bin	-0.2	0
bin	-0.16666666666667	0
bin	-0.13333333333333	0
bin	-0.1	0
bin	-0.066666666666667	0
bin	-0.033333333333333	0
bin	-6.9388939039072e-018	0
bin	0.033333333333333	0
bin	0.066666666666667	0
bin	0.1	0
bin	0.13333333333333	0
bin	0.16666666666667	0
bin	0.2	0
bin	0.23333333333333	0
bin	0.26666666666667	0
bin	0.3	0
bin	0.33333333333333	0
bin	0.36666666666667	0
bin	0.4	0
bin	0.43333333333333	0
bin	0.46666666666667	0
bin	0.5	0
statistic LoRaNetworkTest.loRaNodes[4].LoRaNic.radio minSNIR:histogram
field count 0
field mean nan
field stddev nan
field min nan
field max nan
field sum 0
field sqrsum 0
attr source minSNIR
attr title "Min SNIR, histogram"
bin	-inf	0
bin	-0.5	0
bin	-0.46666666666667	0
bin	-0.43333333333333	0
bin	-0.4	0
bin	-0.36666666666667	0
bin	-0.33333333333333	0
bin	-0.3	0
bin	-0.26666666666667	0
bin	-0.23333333333333	0
bin	-0.2	0
bin	-0.16666666666667	0
bin	-0.13333333333333	0
bin	-0.1	0
bin	-0.066666666666667	0
bin	-0.033333333333333	0
bin	-6.9388939039072e-018	0
bin	0.033333333333333	0
bin	0.066666666666667	0
bin	0.1	0
bin	0.13333333333333	0
bin	0.16666666666667	0
bin	0.2	0
bin	0.23333333333333	0
bin	0.26666666666667	0
bin	0.3	0
bin	0.33333333333333	0
bin	0.36666666666667	0
bin	0.4	0
bin	0.43333333333333	0
bin	0.46666666666667	0
bin	0.5	0
scalar LoRaNetworkTest.loRaNodes[4].LoRaNic.radio transmissionState:count 18172
attr interpolationmode sample-hold
attr source transmissionStateChanged
attr title "Radio transmission state, count"
scalar LoRaNetworkTest.loRaNodes[4].LoRaNic.radio receptionState:count 20340
attr interpolationmode sample-hold
attr source receptionStateChanged
attr title "Radio reception state, count"
scalar LoRaNetworkTest.loRaNodes[4].LoRaNic.radio radioMode:count 28884
attr interpolationmode sample-hold
attr source radioModeChanged
attr title "Radio mode, count"
scalar LoRaNetworkTest.loRaNodes[4].SimpleLoRaApp positionX 444.28638394922
scalar LoRaNetworkTest.loRaNodes[4].SimpleLoRaApp positionY 401.31780903786
scalar LoRaNetworkTest.loRaNodes[4].SimpleLoRaApp finalTP 2
scalar LoRaNetworkTest.loRaNodes[4].SimpleLoRaApp finalSF 8
scalar LoRaNetworkTest.loRaNodes[4].SimpleLoRaApp sentPackets 4543
scalar LoRaNetworkTest.loRaNodes[4].SimpleLoRaApp receivedADRCommands 0
scalar LoRaNetworkTest.loRaNodes[4].SimpleLoRaApp LoRa_AppPacketSent:count 4543
attr source LoRa_AppPacketSent
scalar LoRaNetworkTest.loRaNodes[5].LoRaNic.mac numRetry 0
scalar LoRaNetworkTest.loRaNodes[5].LoRaNic.mac numSentWithoutRetry 0
scalar LoRaNetworkTest.loRaNodes[5].LoRaNic.mac numGivenUp 0
scalar LoRaNetworkTest.loRaNodes[5].LoRaNic.mac numSent 2202
scalar LoRaNetworkTest.loRaNodes[5].LoRaNic.mac numReceived 0
scalar LoRaNetworkTest.loRaNodes[5].LoRaNic.mac numSentBroadcast 0
scalar LoRaNetworkTest.loRaNodes[5].LoRaNic.mac numReceivedBroadcast 0
scalar LoRaNetworkTest.loRaNodes[5].LoRaNic.radio.transmitter LoRaTransmissionCreated:count 1883
attr source LoRaTransmissionCreated
scalar LoRaNetworkTest.loRaNodes[5].LoRaNic.radio.receiver numCollisions 0
scalar LoRaNetworkTest.loRaNodes[5].LoRaNic.radio.receiver rcvBelowSensitivity 0
scalar LoRaNetworkTest.loRaNodes[5].LoRaNic.radio.receiver LoRaReceptionCollision:count 0
attr source LoRaReceptionCollision
scalar LoRaNetworkTest.loRaNodes[5].LoRaNic.radio.energyConsumer totalEnergyConsumed 539.81195223368
statistic LoRaNetworkTest.loRaNodes[5].LoRaNic.radio symbolErrorRate:histogram
field count 0
field mean nan
field stddev nan
field min nan
field max nan
field sum 0
field sqrsum 0
attr source symbolErrorRate
attr title "Symbol error rate, histogram"
bin	-inf	0
bin	-0.5	0
bin	-0.46666666666667	0
bin	-0.43333333333333	0
bin	-0.4	0
bin	-0.36666666666667	0
bin	-0.33333333333333	0
bin	-0.3	0
bin	-0.26666666666667	0
bin	-0.23333333333333	0
bin	-0.2	0
bin	-0.16666666666667	0
bin	-0.13333333333333	0
bin	-0.1	0
bin	-0.066666666666667	0
bin	-0.033333333333333	0
bin	-6.9388939039072e-018	0
bin	0.033333333333333	0
bin	0.066666666666667	0
bin	0.1	0
bin	0.13333333333333	0
bin	0.16666666666667	0
bin	0.2	0
bin	0.23333333333333	0
bin	0.26666666666667	0
bin	0.3	0
bin	0.33333333333333	0
bin	0.36666666666667	0
bin	0.4	0
bin	0.43333333333333	0
bin	0.46666666666667	0
bin	0.5	0
statistic LoRaNetworkTest.loRaNodes[5].LoRaNic.radio bitErrorRate:histogram
field count 0
field mean nan
field stddev nan
field min nan
field max nan
field sum 0
field sqrsum 0
attr source bitErrorRate
attr title "Bit error rate, histogram"
bin	-inf	0
bin	-0.5	0
bin	-0.46666666666667	0
bin	-0.43333333333333	0
bin	-0.4	0
bin	-0.36666666666667	0
bin	-0.33333333333333	0
bin	-0.3	0
bin	-0.26666666666667	0
bin	-0.23333333333333	0
bin	-0.2	0
bin	-0.16666666666667	0
bin	-0.13333333333333	0
bin	-0.1	0
bin	-0.066666666666667	0
bin	-0.033333333333333	0
bin	-6.9388939039072e-018	0
bin	0.033333333333333	0
bin	0.066666666666667	0
bin	0.1	0
bin	0.13333333333333	0
bin	0.16666666666667	0
bin	0.2	0
bin	0.23333333333333	0
bin	0.26666666666667	0
bin	0.3	0
bin	0.33333333333333	0
bin	0.36666666666667	0
bin	0.4	0
bin	0.43333333333333	0
bin	0.46666666666667	0
bin	0.5	0
statistic LoRaNetworkTest.loRaNodes[5].LoRaNic.radio packetErrorRate:histogram
field count 0
field mean nan
field stddev nan
field min nan
field max nan
field sum 0
field sqrsum 0
attr source packetErrorRate
attr title "Packet error rate, histogram"
bin	-inf	0
bin	-0.5	0
bin	-0.46666666666667	0
bin	-0.43333333333333	0
bin	-0.4	0
bin	-0.36666666666667	0
bin	-0.33333333333333	0
bin	-0.3	0
bin	-0.26666666666667	0
bin	-0.23333333333333	0
bin	-0.2	0
bin	-0.16666666666667	0
bin	-0.13333333333333	0
bin	-0.1	0
bin	-0.066666666666667	0
bin	-0.033333333333333	0
bin	-6.9388939039072e-018	0
bin	0.033333333333333	0
bin	0.066666666666667	0
bin	0.1	0
bin	0.13333333333333	0
bin	0.16666666666667	0
bin	0.2	0
bin	0.23333333333333	0
bin	0.26666666666667	0
bin	0.3	0
bin	0.33333333333333	0
bin	0.36666666666667	0
bin	0.4	0
bin	0.43333333333333	0
bin	0.46666666666667	0
bin	0.5	0
statistic LoRaNetworkTest.loRaNodes[5].LoRaNic.radio minSNIR:histogram
field count 10
field mean 1.0419378434683
field stddev 2.8097899007263e-008
field min 1.0419378434683
field max 1.0419378434683
field sum 10.419378434683
field sqrsum 10.856344696514
attr source minSNIR
attr title "Min SNIR, histogram"
bin	-inf	0
bin	0.54193784346832	0
bin	0.57527117680166	0
bin	0.60860451013499	0
bin	0.64193784346832	0
bin	0.67527117680166	0
bin	0.70860451013499	0
bin	0.74193784346832	0
bin	0.77527117680166	0
bin	0.80860451013499	0
bin	0.84193784346832	0
bin	0.87527117680166	0
bin	0.90860451013499	0
bin	0.94193784346832	0
bin	0.97527117680166	0
bin	1.008604510135	0
bin	1.0419378434683	10
bin	1.0752711768017	0
bin	1.108604510135	0
bin	1.1419378434683	0
bin	1.1752711768017	0
bin	1.208604510135	0
bin	1.2419378434683	0
bin	1.2752711768017	0
bin	1.308604510135	0
bin	1.3419378434683	0
bin	1.3752711768017	0
bin	1.408604510135	0
bin	1.4419378434683	0
bin	1.4752711768017	0
bin	1.508604510135	0
bin	1.5419378434683	0
scalar LoRaNetworkTest.loRaNodes[5].LoRaNic.radio transmissionState:count 7532
attr interpolationmode sample-hold
attr source transmissionStateChanged
attr title "Radio transmission state, count"
scalar LoRaNetworkTest.loRaNodes[5].LoRaNic.radio receptionState:count 8540
attr interpolationmode sample-hold
attr source receptionStateChanged
attr title "Radio reception state, count"
scalar LoRaNetworkTest.loRaNodes[5].LoRaNic.radio radioMode:count 12044
attr interpolationmode sample-hold
attr source radioModeChanged
attr title "Radio mode, count"
scalar LoRaNetworkTest.loRaNodes[5].SimpleLoRaApp positionX 311.12250074744
scalar LoRaNetworkTest.loRaNodes[5].SimpleLoRaApp positionY 9.7048315778375
scalar LoRaNetworkTest.loRaNodes[5].SimpleLoRaApp finalTP 11
scalar LoRaNetworkTest.loRaNodes[5].SimpleLoRaApp finalSF 12
scalar LoRaNetworkTest.loRaNodes[5].SimpleLoRaApp sentPackets 1883
scalar LoRaNetworkTest.loRaNodes[5].SimpleLoRaApp receivedADRCommands 0
scalar LoRaNetworkTest.loRaNodes[5].SimpleLoRaApp LoRa_AppPacketSent:count 1883
attr source LoRa_AppPacketSent
scalar LoRaNetworkTest.loRaNodes[6].LoRaNic.mac numRetry 0
scalar LoRaNetworkTest.loRaNodes[6].LoRaNic.mac numSentWithoutRetry 0
scalar LoRaNetworkTest.loRaNodes[6].LoRaNic.mac numGivenUp 0
scalar LoRaNetworkTest.loRaNodes[6].LoRaNic.mac numSent 4761
scalar LoRaNetworkTest.loRaNodes[6].LoRaNic.mac numReceived 0
scalar LoRaNetworkTest.loRaNodes[6].LoRaNic.mac numSentBroadcast 0
scalar LoRaNetworkTest.loRaNodes[6].LoRaNic.mac numReceivedBroadcast 0
scalar LoRaNetworkTest.loRaNodes[6].LoRaNic.radio.transmitter LoRaTransmissionCreated:count 4098
attr source LoRaTransmissionCreated
scalar LoRaNetworkTest.loRaNodes[6].LoRaNic.radio.receiver numCollisions 0
scalar LoRaNetworkTest.loRaNodes[6].LoRaNic.radio.receiver rcvBelowSensitivity 63
scalar LoRaNetworkTest.loRaNodes[6].LoRaNic.radio.receiver LoRaReceptionCollision:count 0
attr source LoRaReceptionCollision
scalar LoRaNetworkTest.loRaNodes[6].LoRaNic.radio.energyConsumer totalEnergyConsumed 401.12141194681
statistic LoRaNetworkTest.loRaNodes[6].LoRaNic.radio symbolErrorRate:histogram
field count 0
field mean nan
field stddev nan
field min nan
field max nan
field sum 0
field sqrsum 0
attr source symbolErrorRate
attr title "Symbol error rate, histogram"
bin	-inf	0
bin	-0.5	0
bin	-0.46666666666667	0
bin	-0.43333333333333	0
bin	-0.4	0
bin	-0.36666666666667	0
bin	-0.33333333333333	0
bin	-0.3	0
bin	-0.26666666666667	0
bin	-0.23333333333333	0
bin	-0.2	0
bin	-0.16666666666667	0
bin	-0.13333333333333	0
bin	-0.1	0
bin	-0.066666666666667	0
bin	-0.033333333333333	0
bin	-6.9388939039072e-018	0
bin	0.033333333333333	0
bin	0.066666666666667	0
bin	0.1	0
bin	0.13333333333333	0
bin	0.16666666666667	0
bin	0.2	0
bin	0.23333333333333	0
bin	0.26666666666667	0
bin	0.3	0
bin	0.33333333333333	0
bin	0.36666666666667	0
bin	0.4	0
bin	0.43333333333333	0
bin	0.46666666666667	0
bin	0.5	0
statistic LoRaNetworkTest.loRaNodes[6].LoRaNic.radio bitErrorRate:histogram
field count 0
field mean nan
field stddev nan
field min nan
field max nan
field sum 0
field sqrsum 0
attr source bitErrorRate
attr title "Bit error rate, histogram"
bin	-inf	0
bin	-0.5	0
bin	-0.46666666666667	0
bin	-0.43333333333333	0
bin	-0.4	0
bin	-0.36666666666667	0
bin	-0.33333333333333	0
bin	-0.3	0
bin	-0.26666666666667	0
bin	-0.23333333333333	0
bin	-0.2	0
bin	-0.16666666666667	0
bin	-0.13333333333333	0
bin	-0.1	0
bin	-0.066666666666667	0
bin	-0.033333333333333	0
bin	-6.9388939039072e-018	0
bin	0.033333333333333	0
bin	0.066666666666667	0
bin	0.1	0
bin	0.13333333333333	0
bin	0.16666666666667	0
bin	0.2	0
bin	0.23333333333333	0
bin	0.26666666666667	0
bin	0.3	0
bin	0.33333333333333	0
bin	0.36666666666667	0
bin	0.4	0
bin	0.43333333333333	0
bin	0.46666666666667	0
bin	0.5	0
statistic LoRaNetworkTest.loRaNodes[6].LoRaNic.radio packetErrorRate:histogram
field count 0
field mean nan
field stddev nan
field min nan
field max nan
field sum 0
field sqrsum 0
attr source packetErrorRate
attr title "Packet error rate, histogram"
bin	-inf	0
bin	-0.5	0
bin	-0.46666666666667	0
bin	-0.43333333333333	0
bin	-0.4	0
bin	-0.36666666666667	0
bin	-0.33333333333333	0
bin	-0.3	0
bin	-0.26666666666667	0
bin	-0.23333333333333	0
bin	-0.2	0
bin	-0.16666666666667	0
bin	-0.13333333333333	0
bin	-0.1	0
bin	-0.066666666666667	0
bin	-0.033333333333333	0
bin	-6.9388939039072e-018	0
bin	0.033333333333333	0
bin	0.066666666666667	0
bin	0.1	0
bin	0.13333333333333	0
bin	0.16666666666667	0
bin	0.2	0
bin	0.23333333333333	0
bin	0.26666666666667	0
bin	0.3	0
bin	0.33333333333333	0
bin	0.36666666666667	0
bin	0.4	0
bin	0.43333333333333	0
bin	0.46666666666667	0
bin	0.5	0
statistic LoRaNetworkTest.loRaNodes[6].LoRaNic.radio minSNIR:histogram
field count 0
field mean nan
field stddev nan
field min nan
field max nan
field sum 0
field sqrsum 0
attr source minSNIR
attr title "Min SNIR, histogram"
bin	-inf	0
bin	-0.5	0
bin	-0.46666666666667	0
bin	-0.43333333333333	0
bin	-0.4	0
bin	-0.36666666666667	0
bin	-0.33333333333333	0
bin	-0.3	0
bin	-0.26666666666667	0
bin	-0.23333333333333	0
bin	-0.2	0
bin	-0.16666666666667	0
bin	-0.13333333333333	0
bin	-0.1	0
bin	-0.066666666666667	0
bin	-0.033333333333333	0
bin	-6.9388939039072e-018	0
bin	0.033333333333333	0
bin	0.066666666666667	0
bin	0.1	0
bin	0.13333333333333	0
bin	0.16666666666667	0
bin	0.2	0
bin	0.23333333333333	0
bin	0.26666666666667	0
bin	0.3	0
bin	0.33333333333333	0
bin	0.36666666666667	0
bin	0.4	0
bin	0.43333333333333	0
bin	0.46666666666667	0
bin	0.5	0
scalar LoRaNetworkTest.loRaNodes[6].LoRaNic.radio transmissionState:count 16392
attr interpolationmode sample-hold
attr source transmissionStateChanged
attr title "Radio transmission state, count"
scalar LoRaNetworkTest.loRaNodes[6].LoRaNic.radio receptionState:count 18436
attr interpolationmode sample-hold
attr source receptionStateChanged
attr title "Radio reception state, count"
scalar LoRaNetworkTest.loRaNodes[6].LoRaNic.radio radioMode:count 26121
attr interpolationmode sample-hold
attr source radioModeChanged
attr title "Radio mode, count"
scalar LoRaNetworkTest.loRaNodes[6].SimpleLoRaApp positionX 373.51524330676
scalar LoRaNetworkTest.loRaNodes[6].SimpleLoRaApp positionY 67.368373163044
scalar LoRaNetworkTest.loRaNodes[6].SimpleLoRaApp finalTP 2
scalar LoRaNetworkTest.loRaNodes[6].SimpleLoRaApp finalSF 9
scalar LoRaNetworkTest.loRaNodes[6].SimpleLoRaApp sentPackets 4098
scalar LoRaNetworkTest.loRaNodes[6].SimpleLoRaApp receivedADRCommands 0
scalar LoRaNetworkTest.loRaNodes[6].SimpleLoRaApp LoRa_AppPacketSent:count 4098
attr source LoRa_AppPacketSent
scalar LoRaNetworkTest.loRaNodes[7].LoRaNic.mac numRetry 0
scalar LoRaNetworkTest.loRaNodes[7].LoRaNic.mac numSentWithoutRetry 0
scalar LoRaNetworkTest.loRaNodes[7].LoRaNic.mac numGivenUp 0
scalar LoRaNetworkTest.loRaNodes[7].LoRaNic.mac numSent 2213
scalar LoRaNetworkTest.loRaNodes[7].LoRaNic.mac numReceived 0
scalar LoRaNetworkTest.loRaNodes[7].LoRaNic.mac numSentBroadcast 0
scalar LoRaNetworkTest.loRaNodes[7].LoRaNic.mac numReceivedBroadcast 0
scalar LoRaNetworkTest.loRaNodes[7].LoRaNic.radio.transmitter LoRaTransmissionCreated:count 1898
attr source LoRaTransmissionCreated
scalar LoRaNetworkTest.loRaNodes[7].LoRaNic.radio.receiver numCollisions 0
scalar LoRaNetworkTest.loRaNodes[7].LoRaNic.radio.receiver rcvBelowSensitivity 0
scalar LoRaNetworkTest.loRaNodes[7].LoRaNic.radio.receiver LoRaReceptionCollision:count 0
attr source LoRaReceptionCollision
scalar LoRaNetworkTest.loRaNodes[7].LoRaNic.radio.energyConsumer totalEnergyConsumed 542.59559350139
statistic LoRaNetworkTest.loRaNodes[7].LoRaNic.radio symbolErrorRate:histogram
field count 0
field mean nan
field stddev nan
field min nan
field max nan
field sum 0
field sqrsum 0
attr source symbolErrorRate
attr title "Symbol error rate, histogram"
bin	-inf	0
bin	-0.5	0
bin	-0.46666666666667	0
bin	-0.43333333333333	0
bin	-0.4	0
bin	-0.36666666666667	0
bin	-0.33333333333333	0
bin	-0.3	0
bin	-0.26666666666667	0
bin	-0.23333333333333	0
bin	-0.2	0
bin	-0.16666666666667	0
bin	-0.13333333333333	0
bin	-0.1	0
bin	-0.066666666666667	0
bin	-0.033333333333333	0
bin	-6.9388939039072e-018	0
bin	0.033333333333333	0
bin	0.066666666666667	0
bin	0.1	0
bin	0.13333333333333	0
bin	0.16666666666667	0
bin	0.2	0
bin	0.23333333333333	0
bin	0.26666666666667	0
bin	0.3	0
bin	0.33333333333333	0
bin	0.36666666666667	0
bin	0.4	0
bin	0.43333333333333	0
bin	0.46666666666667	0
bin	0.5	0
statistic LoRaNetworkTest.loRaNodes[7].LoRaNic.radio bitErrorRate:histogram
field count 0
field mean nan
field stddev nan
field min nan
field max nan
field sum 0
field sqrsum 0
attr source bitErrorRate
attr title "Bit error rate, histogram"
bin	-inf	0
bin	-0.5	0
bin	-0.46666666666667	0
bin	-0.43333333333333	0
bin	-0.4	0
bin	-0.36666666666667	0
bin	-0.33333333333333	0
bin	-0.3	0
bin	-0.26666666666667	0
bin	-0.23333333333333	0
bin	-0.2	0
bin	-0.16666666666667	0
bin	-0.13333333333333	0
bin	-0.1	0
bin	-0.066666666666667	0
bin	-0.033333333333333	0
bin	-6.9388939039072e-018	0
bin	0.033333333333333	0
bin	0.066666666666667	0
bin	0.1	0
bin	0.13333333333333	0
bin	0.16666666666667	0
bin	0.2	0
bin	0.23333333333333	0
bin	0.26666666666667	0
bin	0.3	0
bin	0.33333333333333	0
bin	0.36666666666667	0
bin	0.4	0
bin	0.43333333333333	0
bin	0.46666666666667	0
bin	0.5	0
statistic LoRaNetworkTest.loRaNodes[7].LoRaNic.radio packetErrorRate:histogram
field count 0
field mean nan
field stddev nan
field min nan
field max nan
field sum 0
field sqrsum 0
attr source packetErrorRate
attr title "Packet error rate, histogram"
bin	-inf	0
bin	-0.5	0
bin	-0.46666666666667	0
bin	-0.43333333333333	0
bin	-0.4	0
bin	-0.36666666666667	0
bin	-0.33333333333333	0
bin	-0.3	0
bin	-0.26666666666667	0
bin	-0.23333333333333	0
bin	-0.2	0
bin	-0.16666666666667	0
bin	-0.13333333333333	0
bin	-0.1	0
bin	-0.066666666666667	0
bin	-0.033333333333333	0
bin	-6.9388939039072e-018	0
bin	0.033333333333333	0
bin	0.066666666666667	0
bin	0.1	0
bin	0.13333333333333	0
bin	0.16666666666667	0
bin	0.2	0
bin	0.23333333333333	0
bin	0.26666666666667	0
bin	0.3	0
bin	0.33333333333333	0
bin	0.36666666666667	0
bin	0.4	0
bin	0.43333333333333	0
bin	0.46666666666667	0
bin	0.5	0
statistic LoRaNetworkTest.loRaNodes[7].LoRaNic.radio minSNIR:histogram
field count 11
field mean 1.0419378434683
field stddev 2.9802322387695e-008
field min 1.0419378434683
field max 1.0419378434683
field sum 11.461316278152
field sqrsum 11.941979166166
attr source minSNIR
attr title "Min SNIR, histogram"
bin	-inf	0
bin	0.54193784346832	0
bin	0.57527117680166	0
bin	0.60860451013499	0
bin	0.64193784346832	0
bin	0.67527117680166	0
bin	0.70860451013499	0
bin	0.74193784346832	0
bin	0.77527117680166	0
bin	0.80860451013499	0
bin	0.84193784346832	0
bin	0.87527117680166	0
bin	0.90860451013499	0
bin	0.94193784346832	0
bin	0.97527117680166	0
bin	1.008604510135	0
bin	1.0419378434683	11
bin	1.0752711768017	0
bin	1.108604510135	0
bin	1.1419378434683	0
bin	1.1752711768017	0
bin	1.208604510135	0
bin	1.2419378434683	0
bin	1.2752711768017	0
bin	1.308604510135	0
bin	1.3419378434683	0
bin	1.3752711768017	0
bin	1.408604510135	0
bin	1.4419378434683	0
bin	1.4752711768017	0
bin	1.508604510135	0
bin	1.5419378434683	0
scalar LoRaNetworkTest.loRaNodes[7].LoRaNic.radio transmissionState:count 7592
attr interpolationmode sample-hold
attr source transmissionStateChanged
attr title "Radio transmission state, count"
scalar LoRaNetworkTest.loRaNodes[7].LoRaNic.radio receptionState:count 8620
attr interpolationmode sample-hold
attr source receptionStateChanged
attr title "Radio reception state, count"
scalar LoRaNetworkTest.loRaNodes[7].LoRaNic.radio radioMode:count 12148
attr interpolationmode sample-hold
attr source radioModeChanged
attr title "Radio mode, count"
scalar LoRaNetworkTest.loRaNodes[7].SimpleLoRaApp positionX 227.33185920864
scalar LoRaNetworkTest.loRaNodes[7].SimpleLoRaApp positionY 383.59611064196
scalar LoRaNetworkTest.loRaNodes[7].SimpleLoRaApp finalTP 11
scalar LoRaNetworkTest.loRaNodes[7].SimpleLoRaApp finalSF 12
scalar LoRaNetworkTest.loRaNodes[7].SimpleLoRaApp sentPackets 1898
scalar LoRaNetworkTest.loRaNodes[7].SimpleLoRaApp receivedADRCommands 0
scalar LoRaNetworkTest.loRaNodes[7].SimpleLoRaApp LoRa_AppPacketSent:count 1898
attr source LoRa_AppPacketSent
scalar LoRaNetworkTest.loRaNodes[8].LoRaNic.mac numRetry 0
scalar LoRaNetworkTest.loRaNodes[8].LoRaNic.mac numSentWithoutRetry 0
scalar LoRaNetworkTest.loRaNodes[8].LoRaNic.mac numGivenUp 0
scalar LoRaNetworkTest.loRaNodes[8].LoRaNic.mac numSent 5271
scalar LoRaNetworkTest.loRaNodes[8].LoRaNic.mac numReceived 0
scalar LoRaNetworkTest.loRaNodes[8].LoRaNic.mac numSentBroadcast 0
scalar LoRaNetworkTest.loRaNodes[8].LoRaNic.mac numReceivedBroadcast 0
scalar LoRaNetworkTest.loRaNodes[8].LoRaNic.radio.transmitter LoRaTransmissionCreated:count 4500
attr source LoRaTransmissionCreated
scalar LoRaNetworkTest.loRaNodes[8].LoRaNic.radio.receiver numCollisions 0
scalar LoRaNetworkTest.loRaNodes[8].LoRaNic.radio.receiver rcvBelowSensitivity 196
scalar LoRaNetworkTest.loRaNodes[8].LoRaNic.radio.receiver LoRaReceptionCollision:count 0
attr source LoRaReceptionCollision
scalar LoRaNetworkTest.loRaNodes[8].LoRaNic.radio.energyConsumer totalEnergyConsumed 399.07335687851
statistic LoRaNetworkTest.loRaNodes[8].LoRaNic.radio symbolErrorRate:histogram
field count 0
field mean nan
field stddev nan
field min nan
field max nan
field sum 0
field sqrsum 0
attr source symbolErrorRate
attr title "Symbol error rate, histogram"
bin	-inf	0
bin	-0.5	0
bin	-0.46666666666667	0
bin	-0.43333333333333	0
bin	-0.4	0
bin	-0.36666666666667	0
bin	-0.33333333333333	0
bin	-0.3	0
bin	-0.26666666666667	0
bin	-0.23333333333333	0
bin	-0.2	0
bin	-0.16666666666667	0
bin	-0.13333333333333	0
bin	-0.1	0
bin	-0.066666666666667	0
bin	-0.033333333333333	0
bin	-6.9388939039072e-018	0
bin	0.033333333333333	0
bin	0.066666666666667	0
bin	0.1	0
bin	0.13333333333333	0
bin	0.16666666666667	0
bin	0.2	0
bin	0.23333333333333	0
bin	0.26666666666667	0
bin	0.3	0
bin	0.33333333333333	0
bin	0.36666666666667	0
bin	0.4	0
bin	0.43333333333333	0
bin	0.46666666666667	0
bin	0.5	0
statistic LoRaNetworkTest.loRaNodes[8].LoRaNic.radio bitErrorRate:histogram
field count 0
field mean nan
field stddev nan
field min nan
field max nan
field sum 0
field sqrsum 0
attr source bitErrorRate
attr title "Bit error rate, histogram"
bin	-inf	0
bin	-0.5	0
bin	-0.46666666666667	0
bin	-0.43333333333333	0
bin	-0.4	0
bin	-0.36666666666667	0
bin	-0.33333333333333	0
bin	-0.3	0
bin	-0.26666666666667	0
bin	-0.23333333333333	0
bin	-0.2	0
bin	-0.16666666666667	0
bin	-0.13333333333333	0
bin	-0.1	0
bin	-0.066666666666667	0
bin	-0.033333333333333	0
bin	-6.9388939039072e-018	0
bin	0.033333333333333	0
bin	0.066666666666667	0
bin	0.1	0
bin	0.13333333333333	0
bin	0.16666666666667	0
bin	0.2	0
bin	0.23333333333333	0
bin	0.26666666666667	0
bin	0.3	0
bin	0.33333333333333	0
bin	0.36666666666667	0
bin	0.4	0
bin	0.43333333333333	0
bin	0.46666666666667	0
bin	0.5	0
statistic LoRaNetworkTest.loRaNodes[8].LoRaNic.radio packetErrorRate:histogram
field count 0
field mean nan
field stddev nan
field min nan
field max nan
field sum 0
field sqrsum 0
attr source packetErrorRate
attr title "Packet error rate, histogram"
bin	-inf	0
bin	-0.5	0
bin	-0.46666666666667	0
bin	-0.43333333333333	0
bin	-0.4	0
bin	-0.36666666666667	0
bin	-0.33333333333333	0
bin	-0.3	0
bin	-0.26666666666667	0
bin	-0.23333333333333	0
bin	-0.2	0
bin	-0.16666666666667	0
bin	-0.13333333333333	0
bin	-0.1	0
bin	-0.066666666666667	0
bin	-0.033333333333333	0
bin	-6.9388939039072e-018	0
bin	0.033333333333333	0
bin	0.066666666666667	0
bin	0.1	0
bin	0.13333333333333	0
bin	0.16666666666667	0
bin	0.2	0
bin	0.23333333333333	0
bin	0.26666666666667	0
bin	0.3	0
bin	0.33333333333333	0
bin	0.36666666666667	0
bin	0.4	0
bin	0.43333333333333	0
bin	0.46666666666667	0
bin	0.5	0
statistic LoRaNetworkTest.loRaNodes[8].LoRaNic.radio minSNIR:histogram
field count 0
field mean nan
field stddev nan
field min nan
field max nan
field sum 0
field sqrsum 0
attr source minSNIR
attr title "Min SNIR, histogram"
bin	-inf	0
bin	-0.5	0
bin	-0.46666666666667	0
bin	-0.43333333333333	0
bin	-0.4	0
bin	-0.36666666666667	0
bin	-0.33333333333333	0
bin	-0.3	0
bin	-0.26666666666667	0
bin	-0.23333333333333	0
bin	-0.2	0
bin	-0.16666666666667	0
bin	-0.13333333333333	0
bin	-0.1	0
bin	-0.066666666666667	0
bin	-0.033333333333333	0
bin	-6.9388939039072e-018	0
bin	0.033333333333333	0
bin	0.066666666666667	0
bin	0.1	0
bin	0.13333333333333	0
bin	0.16666666666667	0
bin	0.2	0
bin	0.23333333333333	0
bin	0.26666666666667	0
bin	0.3	0
bin	0.33333333333333	0
bin	0.36666666666667	0
bin	0.4	0
bin	0.43333333333333	0
bin	0.46666666666667	0
bin	0.5	0
scalar LoRaNetworkTest.loRaNodes[8].LoRaNic.radio transmissionState:count 18000
attr interpolationmode sample-hold
attr source transmissionStateChanged
attr title "Radio transmission state, count"
scalar LoRaNetworkTest.loRaNodes[8].LoRaNic.radio receptionState:count 20300
attr interpolationmode sample-hold
attr source receptionStateChanged
attr title "Radio reception state, count"
scalar LoRaNetworkTest.loRaNodes[8].LoRaNic.radio radioMode:count 28725
attr interpolationmode sample-hold
attr source radioModeChanged
attr title "Radio mode, count"
scalar LoRaNetworkTest.loRaNodes[8].SimpleLoRaApp positionX 374.65400431305
scalar LoRaNetworkTest.loRaNodes[8].SimpleLoRaApp positionY 325.86217615753
scalar LoRaNetworkTest.loRaNodes[8].SimpleLoRaApp finalTP 2
scalar LoRaNetworkTest.loRaNodes[8].SimpleLoRaApp finalSF 8
scalar LoRaNetworkTest.loRaNodes[8].SimpleLoRaApp sentPackets 4500
scalar LoRaNetworkTest.loRaNodes[8].SimpleLoRaApp receivedADRCommands 0
scalar LoRaNetworkTest.loRaNodes[8].SimpleLoRaApp LoRa_AppPacketSent:count 4500
attr source LoRa_AppPacketSent
scalar LoRaNetworkTest.loRaNodes[9].LoRaNic.mac numRetry 0
scalar LoRaNetworkTest.loRaNodes[9].LoRaNic.mac numSentWithoutRetry 0
scalar LoRaNetworkTest.loRaNodes[9].LoRaNic.mac numGivenUp 0
scalar LoRaNetworkTest.loRaNodes[9].LoRaNic.mac numSent 4804
scalar LoRaNetworkTest.loRaNodes[9].LoRaNic.mac numReceived 0
scalar LoRaNetworkTest.loRaNodes[9].LoRaNic.mac numSentBroadcast 0
scalar LoRaNetworkTest.loRaNodes[9].LoRaNic.mac numReceivedBroadcast 0
scalar LoRaNetworkTest.loRaNodes[9].LoRaNic.radio.transmitter LoRaTransmissionCreated:count 4084
attr source LoRaTransmissionCreated
scalar LoRaNetworkTest.loRaNodes[9].LoRaNic.radio.receiver numCollisions 0
scalar LoRaNetworkTest.loRaNodes[9].LoRaNic.radio.receiver rcvBelowSensitivity 79
scalar LoRaNetworkTest.loRaNodes[9].LoRaNic.radio.receiver LoRaReceptionCollision:count 0
attr source LoRaReceptionCollision
scalar LoRaNetworkTest.loRaNodes[9].LoRaNic.radio.energyConsumer totalEnergyConsumed 404.56860028383
statistic LoRaNetworkTest.loRaNodes[9].LoRaNic.radio symbolErrorRate:histogram
field count 0
field mean nan
field stddev nan
field min nan
field max nan
field sum 0
field sqrsum 0
attr source symbolErrorRate
attr title "Symbol error rate, histogram"
bin	-inf	0
bin	-0.5	0
bin	-0.46666666666667	0
bin	-0.43333333333333	0
bin	-0.4	0
bin	-0.36666666666667	0
bin	-0.33333333333333	0
bin	-0.3	0
bin	-0.26666666666667	0
bin	-0.23333333333333	0
bin	-0.2	0
bin	-0.16666666666667	0
bin	-0.13333333333333	0
bin	-0.1	0
bin	-0.066666666666667	0
bin	-0.033333333333333	0
bin	-6.9388939039072e-018	0
bin	0.033333333333333	0
bin	0.066666666666667	0
bin	0.1	0
bin	0.13333333333333	0
bin	0.16666666666667	0
bin	0.2	0
bin	0.23333333333333	0
bin	0.26666666666667	0
bin	0.3	0
bin	0.33333333333333	0
bin	0.36666666666667	0
bin	0.4	0
bin	0.43333333333333	0
bin	0.46666666666667	0
bin	0.5	0
statistic LoRaNetworkTest.loRaNodes[9].LoRaNic.radio bitErrorRate:histogram
field count 0
field mean nan
field stddev nan
field min nan
field max nan
field sum 0
field sqrsum 0
attr source bitErrorRate
attr title "Bit error rate, histogram"
bin	-inf	0
bin	-0.5	0
bin	-0.46666666666667	0
bin	-0.43333333333333	0
bin	-0.4	0
bin	-0.36666666666667	0
bin	-0.33333333333333	0
bin	-0.3	0
bin	-0.26666666666667	0
bin	-0.23333333333333	0
bin	-0.2	0
bin	-0.16666666666667	0
bin	-0.13333333333333	0
bin	-0.1	0
bin	-0.066666666666667	0
bin	-0.033333333333333	0
bin	-6.9388939039072e-018	0
bin	0.033333333333333	0
bin	0.066666666666667	0
bin	0.1	0
bin	0.13333333333333	0
bin	0.16666666666667	0
bin	0.2	0
bin	0.23333333333333	0
bin	0.26666666666667	0
bin	0.3	0
bin	0.33333333333333	0
bin	0.36666666666667	0
bin	0.4	0
bin	0.43333333333333	0
bin	0.46666666666667	0
bin	0.5	0
statistic LoRaNetworkTest.loRaNodes[9].LoRaNic.radio packetErrorRate:histogram
field count 0
field mean nan
field stddev nan
field min nan
field max nan
field sum 0
field sqrsum 0
attr source packetErrorRate
attr title "Packet error rate, histogram"
bin	-inf	0
bin	-0.5	0
bin	-0.46666666666667	0
bin	-0.43333333333333	0
bin	-0.4	0
bin	-0.36666666666667	0
bin	-0.33333333333333	0
bin	-0.3	0
bin	-0.26666666666667	0
bin	-0.23333333333333	0
bin	-0.2	0
bin	-0.16666666666667	0
bin	-0.13333333333333	0
bin	-0.1	0
bin	-0.066666666666667	0
bin	-0.033333333333333	0
bin	-6.9388939039072e-018	0
bin	0.033333333333333	0
bin	0.066666666666667	0
bin	0.1	0
bin	0.13333333333333	0
bin	0.16666666666667	0
bin	0.2	0
bin	0.23333333333333	0
bin	0.26666666666667	0
bin	0.3	0
bin	0.33333333333333	0
bin	0.36666666666667	0
bin	0.4	0
bin	0.43333333333333	0
bin	0.46666666666667	0
bin	0.5	0
statistic LoRaNetworkTest.loRaNodes[9].LoRaNic.radio minSNIR:histogram
field count 0
field mean nan
field stddev nan
field min nan
field max nan
field sum 0
field sqrsum 0
attr source minSNIR
attr title "Min SNIR, histogram"
bin	-inf	0
bin	-0.5	0
bin	-0.46666666666667	0
bin	-0.43333333333333	0
bin	-0.4	0
bin	-0.36666666666667	0
bin	-0.33333333333333	0
bin	-0.3	0
bin	-0.26666666666667	0
bin	-0.23333333333333	0
bin	-0.2	0
bin	-0.16666666666667	0
bin	-0.13333333333333	0
bin	-0.1	0
bin	-0.066666666666667	0
bin	-0.033333333333333	0
bin	-6.9388939039072e-018	0
bin	0.033333333333333	0
bin	0.066666666666667	0
bin	0.1	0
bin	0.13333333333333	0
bin	0.16666666666667	0
bin	0.2	0
bin	0.23333333333333	0
bin	0.26666666666667	0
bin	0.3	0
bin	0.33333333333333	0
bin	0.36666666666667	0
bin	0.4	0
bin	0.43333333333333	0
bin	0.46666666666667	0
bin	0.5	0
scalar LoRaNetworkTest.loRaNodes[9].LoRaNic.radio transmissionState:count 16336
attr interpolationmode sample-hold
attr source transmissionStateChanged
attr title "Radio transmission state, count"
scalar LoRaNetworkTest.loRaNodes[9].LoRaNic.radio receptionState:count 18460
attr interpolationmode sample-hold
attr source receptionStateChanged
attr title "Radio reception state, count"
scalar LoRaNetworkTest.loRaNodes[9].LoRaNic.radio radioMode:count 26097
attr interpolationmode sample-hold
attr source radioModeChanged
attr title "Radio mode, count"
scalar LoRaNetworkTest.loRaNodes[9].SimpleLoRaApp positionX 68.809577040374
scalar LoRaNetworkTest.loRaNodes[9].SimpleLoRaApp positionY 257.93914955109
scalar LoRaNetworkTest.loRaNodes[9].SimpleLoRaApp finalTP 2
scalar LoRaNetworkTest.loRaNodes[9].SimpleLoRaApp finalSF 9
scalar LoRaNetworkTest.loRaNodes[9].SimpleLoRaApp sentPackets 4084
scalar LoRaNetworkTest.loRaNodes[9].SimpleLoRaApp receivedADRCommands 0
scalar LoRaNetworkTest.loRaNodes[9].SimpleLoRaApp LoRa_AppPacketSent:count 4084
attr source LoRa_AppPacketSent
scalar LoRaNetworkTest.loRaGW[0].LoRaGWNic.mac GW_forwardedDown 0
scalar LoRaNetworkTest.loRaGW[0].LoRaGWNic.mac GW_droppedDC 0
scalar LoRaNetworkTest.loRaGW[0].LoRaGWNic.radio.transmitter LoRaTransmissionCreated:count 0
attr source LoRaTransmissionCreated
scalar LoRaNetworkTest.loRaGW[0].LoRaGWNic.radio.receiver numCollisions 111
scalar LoRaNetworkTest.loRaGW[0].LoRaGWNic.radio.receiver rcvBelowSensitivity 35119
scalar LoRaNetworkTest.loRaGW[0].LoRaGWNic.radio.receiver LoRaReceptionCollision:count 96
attr source LoRaReceptionCollision
scalar LoRaNetworkTest.loRaGW[0].LoRaGWNic.radio "DER - Data Extraction Rate" 0.1928923142796
scalar LoRaNetworkTest.loRaGW[0].LoRaGWNic.radio LoRaGWRadioReceptionFinishedCorrect:count 7208
attr source LoRaGWRadioReceptionFinishedCorrect
scalar LoRaNetworkTest.loRaGW[0].LoRaGWNic.radio LoRaGWRadioReceptionStarted:count 37368
attr source LoRaGWRadioReceptionStarted
statistic LoRaNetworkTest.loRaGW[0].LoRaGWNic.radio symbolErrorRate:histogram
field count 0
field mean nan
field stddev nan
field min nan
field max nan
field sum 0
field sqrsum 0
attr source symbolErrorRate
attr title "Symbol error rate, histogram"
bin	-inf	0
bin	-0.5	0
bin	-0.46666666666667	0
bin	-0.43333333333333	0
bin	-0.4	0
bin	-0.36666666666667	0
bin	-0.33333333333333	0
bin	-0.3	0
bin	-0.26666666666667	0
bin	-0.23333333333333	0
bin	-0.2	0
bin	-0.16666666666667	0
bin	-0.13333333333333	0
bin	-0.1	0
bin	-0.066666666666667	0
bin	-0.033333333333333	0
bin	-6.9388939039072e-018	0
bin	0.033333333333333	0
bin	0.066666666666667	0
bin	0.1	0
bin	0.13333333333333	0
bin	0.16666666666667	0
bin	0.2	0
bin	0.23333333333333	0
bin	0.26666666666667	0
bin	0.3	0
bin	0.33333333333333	0
bin	0.36666666666667	0
bin	0.4	0
bin	0.43333333333333	0
bin	0.46666666666667	0
bin	0.5	0
statistic LoRaNetworkTest.loRaGW[0].LoRaGWNic.radio bitErrorRate:histogram
field count 0
field mean nan
field stddev nan
field min nan
field max nan
field sum 0
field sqrsum 0
attr source bitErrorRate
attr title "Bit error rate, histogram"
bin	-inf	0
bin	-0.5	0
bin	-0.46666666666667	0
bin	-0.43333333333333	0
bin	-0.4	0
bin	-0.36666666666667	0
bin	-0.33333333333333	0
bin	-0.3	0
bin	-0.26666666666667	0
bin	-0.23333333333333	0
bin	-0.2	0
bin	-0.16666666666667	0
bin	-0.13333333333333	0
bin	-0.1	0
bin	-0.066666666666667	0
bin	-0.033333333333333	0
bin	-6.9388939039072e-018	0
bin	0.033333333333333	0
bin	0.066666666666667	0
bin	0.1	0
bin	0.13333333333333	0
bin	0.16666666666667	0
bin	0.2	0
bin	0.23333333333333	0
bin	0.26666666666667	0
bin	0.3	0
bin	0.33333333333333	0
bin	0.36666666666667	0
bin	0.4	0
bin	0.43333333333333	0
bin	0.46666666666667	0
bin	0.5	0
statistic LoRaNetworkTest.loRaGW[0].LoRaGWNic.radio packetErrorRate:histogram
field count 0
field mean nan
field stddev nan
field min nan
field max nan
field sum 0
field sqrsum 0
attr source packetErrorRate
attr title "Packet error rate, histogram"
bin	-inf	0
bin	-0.5	0
bin	-0.46666666666667	0
bin	-0.43333333333333	0
bin	-0.4	0
bin	-0.36666666666667	0
bin	-0.33333333333333	0
bin	-0.3	0
bin	-0.26666666666667	0
bin	-0.23333333333333	0
bin	-0.2	0
bin	-0.16666666666667	0
bin	-0.13333333333333	0
bin	-0.1	0
bin	-0.066666666666667	0
bin	-0.033333333333333	0
bin	-6.9388939039072e-018	0
bin	0.033333333333333	0
bin	0.066666666666667	0
bin	0.1	0
bin	0.13333333333333	0
bin	0.16666666666667	0
bin	0.2	0
bin	0.23333333333333	0
bin	0.26666666666667	0
bin	0.3	0
bin	0.33333333333333	0
bin	0.36666666666667	0
bin	0.4	0
bin	0.43333333333333	0
bin	0.46666666666667	0
bin	0.5	0
statistic LoRaNetworkTest.loRaGW[0].LoRaGWNic.radio minSNIR:histogram
field count 7208
field mean 0.6312278055299
field stddev 0.23133930203225
field min 0.24354886756074
field max 0.79640933860203
field sum 4549.8900222595
field sqrsum 3257.7204024483
attr source minSNIR
attr title "Min SNIR, histogram"
bin	-inf	0
bin	-0.032881367959902	0
bin	0.0039759967761834	0
bin	0.040833361512269	0
bin	0.077690726248355	0
bin	0.11454809098444	0
bin	0.15140545572053	0
bin	0.18826282045661	0
bin	0.2251201851927	1859
bin	0.26197754992878	0
bin	0.29883491466487	0
bin	0.33569227940095	0
bin	0.37254964413704	0
bin	0.40940700887313	0
bin	0.44626437360921	0
bin	0.4831217383453	0
bin	0.51997910308138	0
bin	0.55683646781747	0
bin	0.59369383255355	0
bin	0.63055119728964	0
bin	0.66740856202573	0
bin	0.70426592676181	1873
bin	0.7411232914979	0
bin	0.77798065623398	3476
bin	0.81483802097007	0
bin	0.85169538570615	0
bin	0.88855275044224	0
bin	0.92541011517833	0
bin	0.96226747991441	0
bin	0.9991248446505	0
bin	1.0359822093866	0
bin	1.0728395741227	0
scalar LoRaNetworkTest.loRaGW[0].LoRaGWNic.radio transmissionState:count 0
attr interpolationmode sample-hold
attr source transmissionStateChanged
attr title "Radio transmission state, count"
scalar LoRaNetworkTest.loRaGW[0].LoRaGWNic.radio receptionState:count 0
attr interpolationmode sample-hold
attr source receptionStateChanged
attr title "Radio reception state, count"
scalar LoRaNetworkTest.loRaGW[0].LoRaGWNic.radio radioMode:count 0
attr interpolationmode sample-hold
attr source radioModeChanged
attr title "Radio mode, count"
scalar LoRaNetworkTest.loRaGW[0].packetForwarder LoRa_GW_DER 0.1928923142796
scalar LoRaNetworkTest.loRaGW[0].packetForwarder LoRa_GWPacketReceived:count 7208
attr source LoRa_GWPacketReceived
scalar LoRaNetworkTest.loRaGW[0].eth[0].mac "simulated time" 604800
scalar LoRaNetworkTest.loRaGW[0].eth[0].mac full-duplex 1
scalar LoRaNetworkTest.loRaGW[0].eth[0].mac "frames/sec sent" 0.019469246031746
scalar LoRaNetworkTest.loRaGW[0].eth[0].mac "frames/sec rcvd" 0.0055588624338624
scalar LoRaNetworkTest.loRaGW[0].eth[0].mac "bits/sec sent" 9.968253968254
scalar LoRaNetworkTest.loRaGW[0].eth[0].mac "bits/sec rcvd" 2.8461375661376
scalar LoRaNetworkTest.loRaGW[0].eth[0].mac "rx channel idle (%)" 99.99999967981
scalar LoRaNetworkTest.loRaGW[0].eth[0].mac "rx channel utilization (%)" 3.2019047619048e-007
scalar LoRaNetworkTest.loRaGW[0].eth[0].mac rxPkFromHL:count 10091
attr interpolationmode none
attr source rxPkFromHL
attr title "packet bytes from higher layer, count"
scalar LoRaNetworkTest.loRaGW[0].eth[0].mac rxPkFromHL:sum(packetBytes) 645824
attr interpolationmode none
attr source rxPkFromHL
attr title "packet bytes from higher layer, sum(packetBytes)"
scalar LoRaNetworkTest.loRaGW[0].eth[0].mac rxPausePkUnits:count 0
attr interpolationmode none
attr title "pause units received, count"
scalar LoRaNetworkTest.loRaGW[0].eth[0].mac rxPausePkUnits:sum 0
attr interpolationmode none
attr title "pause units received, sum"
scalar LoRaNetworkTest.loRaGW[0].eth[0].mac txPausePkUnits:count 0
attr interpolationmode none
attr title "pause units sent, count"
scalar LoRaNetworkTest.loRaGW[0].eth[0].mac txPausePkUnits:sum 0
attr interpolationmode none
attr title "pause units sent, sum"
scalar LoRaNetworkTest.loRaGW[0].eth[0].mac txPk:count 10091
attr interpolationmode none
attr source txPk
attr title "packets transmitted, count"
scalar LoRaNetworkTest.loRaGW[0].eth[0].mac txPk:sum(packetBytes) 645824
attr interpolationmode none
attr source txPk
attr title "packets transmitted, sum(packetBytes)"
scalar LoRaNetworkTest.loRaGW[0].eth[0].mac droppedPkNotForUs:count 0
attr interpolationmode none
attr source dropPkNotForUs
attr title "packets dropped/not for us, count"
scalar LoRaNetworkTest.loRaGW[0].eth[0].mac droppedPkNotForUs:sum(packetBytes) 0
attr interpolationmode none
attr source dropPkNotForUs
attr title "packets dropped/not for us, sum(packetBytes)"
scalar LoRaNetworkTest.loRaGW[0].eth[0].mac droppedPkBitError:count 0
attr interpolationmode none
attr source dropPkBitError
attr title "packets dropped/bit error, count"
scalar LoRaNetworkTest.loRaGW[0].eth[0].mac droppedPkBitError:sum(packetBytes) 0
attr interpolationmode none
attr source dropPkBitError
attr title "packets dropped/bit error, sum(packetBytes)"
scalar LoRaNetworkTest.loRaGW[0].eth[0].mac droppedPkIfaceDown:count 0
attr interpolationmode none
attr source dropPkIfaceDown
attr title "packets dropped/interface down, count"
scalar LoRaNetworkTest.loRaGW[0].eth[0].mac droppedPkIfaceDown:sum(packetBytes) 0
attr interpolationmode none
attr source dropPkIfaceDown
attr title "packets dropped/interface down, sum(packetBytes)"
scalar LoRaNetworkTest.loRaGW[0].eth[0].mac rxPkOk:count 2883
attr interpolationmode none
attr source rxPkOk
attr title "packets received OK, count"
scalar LoRaNetworkTest.loRaGW[0].eth[0].mac rxPkOk:sum(packetBytes) 184512
attr interpolationmode none
attr source rxPkOk
attr title "packets received OK, sum(packetBytes)"
scalar LoRaNetworkTest.loRaGW[0].eth[0].mac passedUpPk:count 2883
attr interpolationmode none
attr source packetSentToUpper
attr title "packets passed to higher layer, count"
scalar LoRaNetworkTest.loRaGW[0].eth[0].mac passedUpPk:sum(packetBytes) 184512
attr interpolationmode none
attr source packetSentToUpper
attr title "packets passed to higher layer, sum(packetBytes)"
scalar LoRaNetworkTest.loRaGW[0].eth[0].encap pauseSent:count 0
attr title "pause sent, count"
scalar LoRaNetworkTest.loRaGW[0].eth[0].encap pauseSent:sum 0
attr title "pause sent, sum"
scalar LoRaNetworkTest.loRaGW[0].eth[0].encap decapPk:count 2883
attr interpolationmode none
attr source decapPk
attr title "packets decapsulated, count"
scalar LoRaNetworkTest.loRaGW[0].eth[0].encap decapPk:sum(packetBytes) 80724
attr interpolationmode none
attr source decapPk
attr title "packets decapsulated, sum(packetBytes)"
scalar LoRaNetworkTest.loRaGW[0].eth[0].encap encapPk:count 10091
attr interpolationmode none
attr source encapPk
attr title "packets encapsulated, count"
scalar LoRaNetworkTest.loRaGW[0].eth[0].encap encapPk:sum(packetBytes) 340212
attr interpolationmode none
attr source encapPk
attr title "packets encapsulated, sum(packetBytes)"
scalar LoRaNetworkTest.loRaGW[0].udp droppedPkBadChecksum:count 0
attr interpolationmode none
attr title "packets dropped (checksum error), count"
scalar LoRaNetworkTest.loRaGW[0].udp droppedPkWrongPort:count 0
attr interpolationmode none
attr title "packets dropped (wrong port), count"
scalar LoRaNetworkTest.loRaGW[0].udp passedUpPk:count 0
attr interpolationmode none
attr title "packets passed up, count"
scalar LoRaNetworkTest.loRaGW[0].udp sentPk:count 7208
attr interpolationmode none
attr source sentPk
attr title "packets sent, count"
scalar LoRaNetworkTest.loRaGW[0].udp sentPk:sum(packetBytes) 115328
attr interpolationmode none
attr source sentPk
attr title "packets sent, sum(packetBytes)"
scalar LoRaNetworkTest.loRaGW[0].udp rcvdPk:count 0
attr interpolationmode none
attr source rcvdPk
attr title "packets received, count"
scalar LoRaNetworkTest.loRaGW[0].udp rcvdPk:sum(packetBytes) 0
attr interpolationmode none
attr source rcvdPk
attr title "packets received, sum(packetBytes)"
scalar LoRaNetworkTest.loRaGW[0].networkLayer.arp sentReply:count 0
attr title "ARP replies sent, count"
scalar LoRaNetworkTest.loRaGW[0].networkLayer.arp sentReq:count 2883
attr title "ARP request sent, count"
scalar LoRaNetworkTest.loRaGW[0].networkLayer.arp failedARPResolution:count 0
attr title "ARP failed resolutions, count"
scalar LoRaNetworkTest.loRaGW[0].networkLayer.arp completedARPResolution:count 2883
attr title "ARP completed resolutions, count"
scalar LoRaNetworkTest.loRaGW[0].networkLayer.arp initiatedARPResolution:count 2883
attr title "ARP initiated resolutions, count"
scalar LoRaNetworkTest.LoRaMedium.propagation "Arrival computation count" 436430
scalar LoRaNetworkTest.LoRaMedium "transmission count" 43643
scalar LoRaNetworkTest.LoRaMedium "radio frame send count" 436430
scalar LoRaNetworkTest.LoRaMedium "reception computation count" 436430
scalar LoRaNetworkTest.LoRaMedium "interference computation count" 202307
scalar LoRaNetworkTest.LoRaMedium "reception decision computation count" 49073
scalar LoRaNetworkTest.LoRaMedium "listening decision computation count" 103955
scalar LoRaNetworkTest.LoRaMedium "reception cache hit" 39.255809551381
attr unit %
scalar LoRaNetworkTest.LoRaMedium "interference cache hit" 56.212188810565
attr unit %
scalar LoRaNetworkTest.LoRaMedium "noise cache hit" 0
attr unit %
scalar LoRaNetworkTest.LoRaMedium "snir cache hit" 22.102639808245
attr unit %
scalar LoRaNetworkTest.LoRaMedium "reception decision cache hit" 22.102639808245
attr unit %
scalar LoRaNetworkTest.LoRaMedium "reception result cache hit" 0
attr unit %
scalar LoRaNetworkTest.networkServer.networkLayer.arp sentReply:count 2883
attr title "ARP replies sent, count"
scalar LoRaNetworkTest.networkServer.networkLayer.arp sentReq:count 0
attr title "ARP request sent, count"
scalar LoRaNetworkTest.networkServer.networkLayer.arp failedARPResolution:count 0
attr title "ARP failed resolutions, count"
scalar LoRaNetworkTest.networkServer.networkLayer.arp completedARPResolution:count 2883
attr title "ARP completed resolutions, count"
scalar LoRaNetworkTest.networkServer.networkLayer.arp initiatedARPResolution:count 0
attr title "ARP initiated resolutions, count"
scalar LoRaNetworkTest.networkServer.lo0.lo droppedPkBitError:count 0
attr interpolationmode none
attr source dropPkBitError
attr title "packets dropped/bit error, count"
scalar LoRaNetworkTest.networkServer.lo0.lo droppedPkBitError:sum(packetBytes) 0
attr interpolationmode none
attr source dropPkBitError
attr title "packets dropped/bit error, sum(packetBytes)"
scalar LoRaNetworkTest.networkServer.lo0.lo rcvdPkFromHL:count 0
attr interpolationmode none
attr source packetReceivedFromUpper
attr title "packets received from higher layer, count"
scalar LoRaNetworkTest.networkServer.lo0.lo rcvdPkFromHL:sum(packetBytes) 0
attr interpolationmode none
attr source packetReceivedFromUpper
attr title "packets received from higher layer, sum(packetBytes)"
scalar LoRaNetworkTest.networkServer.lo0.lo passedUpPk:count 0
attr interpolationmode none
attr source packetSentToUpper
attr title "packets passed to higher layer, count"
scalar LoRaNetworkTest.networkServer.lo0.lo passedUpPk:sum(packetBytes) 0
attr interpolationmode none
attr source packetSentToUpper
attr title "packets passed to higher layer, sum(packetBytes)"
scalar LoRaNetworkTest.networkServer.eth[0].mac "simulated time" 604800
scalar LoRaNetworkTest.networkServer.eth[0].mac full-duplex 1
scalar LoRaNetworkTest.networkServer.eth[0].mac "frames/sec sent" 0.0055588624338624
scalar LoRaNetworkTest.networkServer.eth[0].mac "frames/sec rcvd" 0.019469246031746
scalar LoRaNetworkTest.networkServer.eth[0].mac "bits/sec sent" 2.8461375661376
scalar LoRaNetworkTest.networkServer.eth[0].mac "bits/sec rcvd" 9.968253968254
scalar LoRaNetworkTest.networkServer.eth[0].mac "rx channel idle (%)" 99.999998878571
scalar LoRaNetworkTest.networkServer.eth[0].mac "rx channel utilization (%)" 1.1214285714286e-006
scalar LoRaNetworkTest.networkServer.eth[0].mac rxPkFromHL:count 2883
attr interpolationmode none
attr source rxPkFromHL
attr title "packet bytes from higher layer, count"
scalar LoRaNetworkTest.networkServer.eth[0].mac rxPkFromHL:sum(packetBytes) 184512
attr interpolationmode none
attr source rxPkFromHL
attr title "packet bytes from higher layer, sum(packetBytes)"
scalar LoRaNetworkTest.networkServer.eth[0].mac rxPausePkUnits:count 0
attr interpolationmode none
attr title "pause units received, count"
scalar LoRaNetworkTest.networkServer.eth[0].mac rxPausePkUnits:sum 0
attr interpolationmode none
attr title "pause units received, sum"
scalar LoRaNetworkTest.networkServer.eth[0].mac txPausePkUnits:count 0
attr interpolationmode none
attr title "pause units sent, count"
scalar LoRaNetworkTest.networkServer.eth[0].mac txPausePkUnits:sum 0
attr interpolationmode none
attr title "pause units sent, sum"
scalar LoRaNetworkTest.networkServer.eth[0].mac txPk:count 2883
attr interpolationmode none
attr source txPk
attr title "packets transmitted, count"
scalar LoRaNetworkTest.networkServer.eth[0].mac txPk:sum(packetBytes) 184512
attr interpolationmode none
attr source txPk
attr title "packets transmitted, sum(packetBytes)"
scalar LoRaNetworkTest.networkServer.eth[0].mac droppedPkNotForUs:count 0
attr interpolationmode none
attr source dropPkNotForUs
attr title "packets dropped/not for us, count"
scalar LoRaNetworkTest.networkServer.eth[0].mac droppedPkNotForUs:sum(packetBytes) 0
attr interpolationmode none
attr source dropPkNotForUs
attr title "packets dropped/not for us, sum(packetBytes)"
scalar LoRaNetworkTest.networkServer.eth[0].mac droppedPkBitError:count 0
attr interpolationmode none
attr source dropPkBitError
attr title "packets dropped/bit error, count"
scalar LoRaNetworkTest.networkServer.eth[0].mac droppedPkBitError:sum(packetBytes) 0
attr interpolationmode none
attr source dropPkBitError
attr title "packets dropped/bit error, sum(packetBytes)"
scalar LoRaNetworkTest.networkServer.eth[0].mac droppedPkIfaceDown:count 0
attr interpolationmode none
attr source dropPkIfaceDown
attr title "packets dropped/interface down, count"
scalar LoRaNetworkTest.networkServer.eth[0].mac droppedPkIfaceDown:sum(packetBytes) 0
attr interpolationmode none
attr source dropPkIfaceDown
attr title "packets dropped/interface down, sum(packetBytes)"
scalar LoRaNetworkTest.networkServer.eth[0].mac rxPkOk:count 10091
attr interpolationmode none
attr source rxPkOk
attr title "packets received OK, count"
scalar LoRaNetworkTest.networkServer.eth[0].mac rxPkOk:sum(packetBytes) 645824
attr interpolationmode none
attr source rxPkOk
attr title "packets received OK, sum(packetBytes)"
scalar LoRaNetworkTest.networkServer.eth[0].mac passedUpPk:count 10091
attr interpolationmode none
attr source packetSentToUpper
attr title "packets passed to higher layer, count"
scalar LoRaNetworkTest.networkServer.eth[0].mac passedUpPk:sum(packetBytes) 645824
attr interpolationmode none
attr source packetSentToUpper
attr title "packets passed to higher layer, sum(packetBytes)"
scalar LoRaNetworkTest.networkServer.eth[0].encap pauseSent:count 0
attr title "pause sent, count"
scalar LoRaNetworkTest.networkServer.eth[0].encap pauseSent:sum 0
attr title "pause sent, sum"
scalar LoRaNetworkTest.networkServer.eth[0].encap decapPk:count 10091
attr interpolationmode none
attr source decapPk
attr title "packets decapsulated, count"
scalar LoRaNetworkTest.networkServer.eth[0].encap decapPk:sum(packetBytes) 340212
attr interpolationmode none
attr source decapPk
attr title "packets decapsulated, sum(packetBytes)"
scalar LoRaNetworkTest.networkServer.eth[0].encap encapPk:count 2883
attr interpolationmode none
attr source encapPk
attr title "packets encapsulated, count"
scalar LoRaNetworkTest.networkServer.eth[0].encap encapPk:sum(packetBytes) 80724
attr interpolationmode none
attr source encapPk
attr title "packets encapsulated, sum(packetBytes)"
scalar LoRaNetworkTest.networkServer.udpApp[0] LoRa_NS_DER 0.1928923142796
scalar LoRaNetworkTest.networkServer.udpApp[0] "Send ADR for node" 0
scalar LoRaNetworkTest.networkServer.udpApp[0] "Send ADR for node" 0
scalar LoRaNetworkTest.networkServer.udpApp[0] "Send ADR for node" 0
statistic LoRaNetworkTest.networkServer.udpApp[0] receivedRSSI
field count 8413
field mean -128.9486876944
field stddev 2.1854054422722
field min -132.63413885445
field max -127.48863656129
field sum -1084845.309573
field sqrsum 139929554.70717
bin	-inf	0
bin	-135.20689000102	0
bin	-134.86385651481	0
bin	-134.5208230286	0
bin	-134.17778954239	0
bin	-133.83475605618	0
bin	-133.49172256997	0
bin	-133.14868908376	0
bin	-132.80565559755	2174
bin	-132.46262211134	0
[...]
scalar LoRaNetworkTest.gwRouter[0].lo0.lo rcvdPkFromHL:count 0
attr interpolationmode none
attr source packetReceivedFromUpper
attr title "packets received from higher layer, count"
scalar LoRaNetworkTest.gwRouter[0].lo0.lo rcvdPkFromHL:sum(packetBytes) 0
attr interpolationmode none
attr source packetReceivedFromUpper
attr title "packets received from higher layer, sum(packetBytes)"
scalar LoRaNetworkTest.gwRouter[0].lo0.lo passedUpPk:count 0
attr interpolationmode none
attr source packetSentToUpper
attr title "packets passed to higher layer, count"
scalar LoRaNetworkTest.gwRouter[0].lo0.lo passedUpPk:sum(packetBytes) 0
attr interpolationmode none
attr source packetSentToUpper
attr title "packets passed to higher layer, sum(packetBytes)"
scalar LoRaNetworkTest.gwRouter[0].eth[0].mac "simulated time" 604800
scalar LoRaNetworkTest.gwRouter[0].eth[0].mac full-duplex 1
scalar LoRaNetworkTest.gwRouter[0].eth[0].mac "frames/sec sent" 0.0055588624338624
scalar LoRaNetworkTest.gwRouter[0].eth[0].mac "frames/sec rcvd" 0.019469246031746
scalar LoRaNetworkTest.gwRouter[0].eth[0].mac "bits/sec sent" 2.8461375661376
scalar LoRaNetworkTest.gwRouter[0].eth[0].mac "bits/sec rcvd" 9.968253968254
scalar LoRaNetworkTest.gwRouter[0].eth[0].mac "rx channel idle (%)" 99.999998878571
scalar LoRaNetworkTest.gwRouter[0].eth[0].mac "rx channel utilization (%)" 1.1214285714286e-006
scalar LoRaNetworkTest.gwRouter[0].eth[0].mac rxPkFromHL:count 2883
attr interpolationmode none
attr source rxPkFromHL
attr title "packet bytes from higher layer, count"
scalar LoRaNetworkTest.gwRouter[0].eth[0].mac rxPkFromHL:sum(packetBytes) 184512
attr interpolationmode none
attr source rxPkFromHL
attr title "packet bytes from higher layer, sum(packetBytes)"
scalar LoRaNetworkTest.gwRouter[0].eth[0].mac rxPausePkUnits:count 0
attr interpolationmode none
attr title "pause units received, count"
scalar LoRaNetworkTest.gwRouter[0].eth[0].mac rxPausePkUnits:sum 0
attr interpolationmode none
attr title "pause units received, sum"
scalar LoRaNetworkTest.gwRouter[0].eth[0].mac txPausePkUnits:count 0
attr interpolationmode none
attr title "pause units sent, count"
scalar LoRaNetworkTest.gwRouter[0].eth[0].mac txPausePkUnits:sum 0
attr interpolationmode none
attr title "pause units sent, sum"
scalar LoRaNetworkTest.gwRouter[0].eth[0].mac txPk:count 2883
attr interpolationmode none
attr source txPk
attr title "packets transmitted, count"
scalar LoRaNetworkTest.gwRouter[0].eth[0].mac txPk:sum(packetBytes) 184512
attr interpolationmode none
attr source txPk
attr title "packets transmitted, sum(packetBytes)"
scalar LoRaNetworkTest.gwRouter[0].eth[0].mac droppedPkNotForUs:count 0
attr interpolationmode none
attr source dropPkNotForUs
attr title "packets dropped/not for us, count"
scalar LoRaNetworkTest.gwRouter[0].eth[0].mac droppedPkNotForUs:sum(packetBytes) 0
attr interpolationmode none
attr source dropPkNotForUs
attr title "packets dropped/not for us, sum(packetBytes)"
scalar LoRaNetworkTest.gwRouter[0].eth[0].mac droppedPkBitError:count 0
attr interpolationmode none
attr source dropPkBitError
attr title "packets dropped/bit error, count"
scalar LoRaNetworkTest.gwRouter[0].eth[0].mac droppedPkBitError:sum(packetBytes) 0
attr interpolationmode none
attr source dropPkBitError
attr title "packets dropped/bit error, sum(packetBytes)"
scalar LoRaNetworkTest.gwRouter[0].eth[0].mac droppedPkIfaceDown:count 0
attr interpolationmode none
attr source dropPkIfaceDown
attr title "packets dropped/interface down, count"
scalar LoRaNetworkTest.gwRouter[0].eth[0].mac droppedPkIfaceDown:sum(packetBytes) 0
attr interpolationmode none
attr source dropPkIfaceDown
attr title "packets dropped/interface down, sum(packetBytes)"
scalar LoRaNetworkTest.gwRouter[0].eth[0].mac rxPkOk:count 10091
attr interpolationmode none
attr source rxPkOk
attr title "packets received OK, count"
scalar LoRaNetworkTest.gwRouter[0].eth[0].mac rxPkOk:sum(packetBytes) 645824
attr interpolationmode none
attr source rxPkOk
attr title "packets received OK, sum(packetBytes)"
scalar LoRaNetworkTest.gwRouter[0].eth[0].mac passedUpPk:count 10091
attr interpolationmode none
attr source packetSentToUpper
attr title "packets passed to higher layer, count"
scalar LoRaNetworkTest.gwRouter[0].eth[0].mac passedUpPk:sum(packetBytes) 645824
attr interpolationmode none
attr source packetSentToUpper
attr title "packets passed to higher layer, sum(packetBytes)"
scalar LoRaNetworkTest.gwRouter[0].eth[0].encap pauseSent:count 0
attr title "pause sent, count"
scalar LoRaNetworkTest.gwRouter[0].eth[0].encap pauseSent:sum 0
attr title "pause sent, sum"
scalar LoRaNetworkTest.gwRouter[0].eth[0].encap decapPk:count 10091
attr interpolationmode none
attr source decapPk
attr title "packets decapsulated, count"
scalar LoRaNetworkTest.gwRouter[0].eth[0].encap decapPk:sum(packetBytes) 340212
attr interpolationmode none
attr source decapPk
attr title "packets decapsulated, sum(packetBytes)"
scalar LoRaNetworkTest.gwRouter[0].eth[0].encap encapPk:count 2883
attr interpolationmode none
attr source encapPk
attr title "packets encapsulated, count"
scalar LoRaNetworkTest.gwRouter[0].eth[0].encap encapPk:sum(packetBytes) 80724
attr interpolationmode none
attr source encapPk
attr title "packets encapsulated, sum(packetBytes)"
scalar LoRaNetworkTest.gwRouter[0].ppp[0].queue queueLength:max nan
attr interpolationmode sample-hold
attr title "queue length, max"
scalar LoRaNetworkTest.gwRouter[0].ppp[0].queue queueLength:timeavg nan
attr interpolationmode sample-hold
attr title "queue length, timeavg"
statistic LoRaNetworkTest.gwRouter[0].ppp[0].queue queueingTime:histogram
field count 7208
field mean 0
field stddev 0
field min 0
field max 0
field sum 0
field sqrsum 0
attr interpolationmode none
attr title "queueing time, histogram"
bin	-inf	0
bin	-0.5	0
bin	-0.46666666666667	0
bin	-0.43333333333333	0
bin	-0.4	0
bin	-0.36666666666667	0
bin	-0.33333333333333	0
bin	-0.3	0
bin	-0.26666666666667	0
bin	-0.23333333333333	0
bin	-0.2	0
bin	-0.16666666666667	0
bin	-0.13333333333333	0
bin	-0.1	0
bin	-0.066666666666667	0
bin	-0.033333333333333	0
bin	-6.9388939039072e-018	7208
bin	0.033333333333333	0
bin	0.066666666666667	0
bin	0.1	0
bin	0.13333333333333	0
bin	0.16666666666667	0
bin	0.2	0
bin	0.23333333333333	0
bin	0.26666666666667	0
bin	0.3	0
bin	0.33333333333333	0
bin	0.36666666666667	0
bin	0.4	0
bin	0.43333333333333	0
bin	0.46666666666667	0
bin	0.5	0
scalar LoRaNetworkTest.gwRouter[0].ppp[0].queue dropPk:count 0
attr interpolationmode none
attr source dropPkByQueue
attr title "dropped packets, count"
scalar LoRaNetworkTest.gwRouter[0].ppp[0].queue dropPk:sum(packetBytes) 0
attr interpolationmode none
attr source dropPkByQueue
attr title "dropped packets, sum(packetBytes)"
scalar LoRaNetworkTest.gwRouter[0].ppp[0].queue rcvdPk:count 7208
attr interpolationmode none
attr title "received packets, count"
scalar LoRaNetworkTest.gwRouter[0].ppp[0].queue rcvdPk:sum(packetBytes) 259488
attr interpolationmode none
attr title "received packets, sum(packetBytes)"
scalar LoRaNetworkTest.gwRouter[0].ppp[0].ppp droppedPkBitError:count 0
attr interpolationmode none
attr source dropPkBitError
attr title "packets dropped/bit error, count"
scalar LoRaNetworkTest.gwRouter[0].ppp[0].ppp droppedPkBitError:sum(packetBytes) 0
attr interpolationmode none
attr source dropPkBitError
attr title "packets dropped/bit error, sum(packetBytes)"
scalar LoRaNetworkTest.gwRouter[0].ppp[0].ppp droppedPkIfaceDown:count 0
attr interpolationmode none
attr source dropPkIfaceDown
attr title "packets dropped/interface down, count"
scalar LoRaNetworkTest.gwRouter[0].ppp[0].ppp droppedPkIfaceDown:sum(packetBytes) 0
attr interpolationmode none
attr source dropPkIfaceDown
attr title "packets dropped/interface down, sum(packetBytes)"
scalar LoRaNetworkTest.gwRouter[0].ppp[0].ppp rxPkOk:count 0
attr interpolationmode none
attr source rxPkOk
attr title "packets received OK, count"
scalar LoRaNetworkTest.gwRouter[0].ppp[0].ppp rxPkOk:sum(packetBytes) 0
attr interpolationmode none
attr source rxPkOk
attr title "packets received OK, sum(packetBytes)"
scalar LoRaNetworkTest.gwRouter[0].ppp[0].ppp txState:timeavg 4.7835653753479e-009
attr interpolationmode sample-hold
attr title "tx state, timeavg"
scalar LoRaNetworkTest.gwRouter[0].ppp[0].ppp rcvdPkFromHL:count 7208
attr interpolationmode none
attr source packetReceivedFromUpper
attr title "packets received from higher layer, count"
scalar LoRaNetworkTest.gwRouter[0].ppp[0].ppp rcvdPkFromHL:sum(packetBytes) 259488
attr interpolationmode none
attr source packetReceivedFromUpper
attr title "packets received from higher layer, sum(packetBytes)"
scalar LoRaNetworkTest.gwRouter[0].ppp[0].ppp passedUpPk:count 0
attr interpolationmode none
attr source packetSentToUpper
attr title "packets passed to higher layer, count"
scalar LoRaNetworkTest.gwRouter[0].ppp[0].ppp passedUpPk:sum(packetBytes) 0
attr interpolationmode none
attr source packetSentToUpper
attr title "packets passed to higher layer, sum(packetBytes)"
scalar LoRaNetworkTest.gwRouter[0].ppp[0].ppp txPk:count 7208
attr interpolationmode none
attr source packetSentToLower
attr title "packets transmitted, count"
scalar LoRaNetworkTest.gwRouter[0].ppp[0].ppp txPk:sum(packetBytes) 309944
attr interpolationmode none
attr source packetSentToLower
attr title "packets transmitted, sum(packetBytes)"
scalar LoRaNetworkTest.nsRouter.networkLayer.arp sentReply:count 0
attr title "ARP replies sent, count"
scalar LoRaNetworkTest.nsRouter.networkLayer.arp sentReq:count 2883
attr title "ARP request sent, count"
scalar LoRaNetworkTest.nsRouter.networkLayer.arp failedARPResolution:count 0
attr title "ARP failed resolutions, count"
scalar LoRaNetworkTest.nsRouter.networkLayer.arp completedARPResolution:count 2883
attr title "ARP completed resolutions, count"
scalar LoRaNetworkTest.nsRouter.networkLayer.arp initiatedARPResolution:count 2883
attr title "ARP initiated resolutions, count"
scalar LoRaNetworkTest.nsRouter.lo0.lo droppedPkBitError:count 0
attr interpolationmode none
attr source dropPkBitError
attr title "packets dropped/bit error, count"
scalar LoRaNetworkTest.nsRouter.lo0.lo droppedPkBitError:sum(packetBytes) 0
attr interpolationmode none
attr source dropPkBitError
attr title "packets dropped/bit error, sum(packetBytes)"
scalar LoRaNetworkTest.nsRouter.lo0.lo rcvdPkFromHL:count 0
attr interpolationmode none
attr source packetReceivedFromUpper
attr title "packets received from higher layer, count"
scalar LoRaNetworkTest.nsRouter.lo0.lo rcvdPkFromHL:sum(packetBytes) 0
attr interpolationmode none
attr source packetReceivedFromUpper
attr title "packets received from higher layer, sum(packetBytes)"
scalar LoRaNetworkTest.nsRouter.lo0.lo passedUpPk:count 0
attr interpolationmode none
attr source packetSentToUpper
attr title "packets passed to higher layer, count"
scalar LoRaNetworkTest.nsRouter.lo0.lo passedUpPk:sum(packetBytes) 0
attr interpolationmode none
attr source packetSentToUpper
attr title "packets passed to higher layer, sum(packetBytes)"
scalar LoRaNetworkTest.nsRouter.eth[0].mac "simulated time" 604800
scalar LoRaNetworkTest.nsRouter.eth[0].mac full-duplex 1
scalar LoRaNetworkTest.nsRouter.eth[0].mac "frames/sec sent" 0.019469246031746
scalar LoRaNetworkTest.nsRouter.eth[0].mac "frames/sec rcvd" 0.0055588624338624
scalar LoRaNetworkTest.nsRouter.eth[0].mac "bits/sec sent" 9.968253968254
scalar LoRaNetworkTest.nsRouter.eth[0].mac "bits/sec rcvd" 2.8461375661376
scalar LoRaNetworkTest.nsRouter.eth[0].mac "rx channel idle (%)" 99.99999967981
scalar LoRaNetworkTest.nsRouter.eth[0].mac "rx channel utilization (%)" 3.2019047619048e-007
scalar LoRaNetworkTest.nsRouter.eth[0].mac rxPkFromHL:count 10091
attr interpolationmode none
attr source rxPkFromHL
attr title "packet bytes from higher layer, count"
scalar LoRaNetworkTest.nsRouter.eth[0].mac rxPkFromHL:sum(packetBytes) 645824
attr interpolationmode none
attr source rxPkFromHL
attr title "packet bytes from higher layer, sum(packetBytes)"
scalar LoRaNetworkTest.nsRouter.eth[0].mac rxPausePkUnits:count 0
attr interpolationmode none
attr title "pause units received, count"
scalar LoRaNetworkTest.nsRouter.eth[0].mac rxPausePkUnits:sum 0
attr interpolationmode none
attr title "pause units received, sum"
scalar LoRaNetworkTest.nsRouter.eth[0].mac txPausePkUnits:count 0
attr interpolationmode none
attr title "pause units sent, count"
scalar LoRaNetworkTest.nsRouter.eth[0].mac txPausePkUnits:sum 0
attr interpolationmode none
attr title "pause units sent, sum"
scalar LoRaNetworkTest.nsRouter.eth[0].mac txPk:count 10091
attr interpolationmode none
attr source txPk
attr title "packets transmitted, count"
scalar LoRaNetworkTest.nsRouter.eth[0].mac txPk:sum(packetBytes) 645824
attr interpolationmode none
attr source txPk
attr title "packets transmitted, sum(packetBytes)"
scalar LoRaNetworkTest.nsRouter.eth[0].mac droppedPkNotForUs:count 0
attr interpolationmode none
attr source dropPkNotForUs
attr title "packets dropped/not for us, count"
scalar LoRaNetworkTest.nsRouter.eth[0].mac droppedPkNotForUs:sum(packetBytes) 0
attr interpolationmode none
attr source dropPkNotForUs
attr title "packets dropped/not for us, sum(packetBytes)"
scalar LoRaNetworkTest.nsRouter.eth[0].mac droppedPkBitError:count 0
attr interpolationmode none
attr source dropPkBitError
attr title "packets dropped/bit error, count"
scalar LoRaNetworkTest.nsRouter.eth[0].mac droppedPkBitError:sum(packetBytes) 0
attr interpolationmode none
attr source dropPkBitError
attr title "packets dropped/bit error, sum(packetBytes)"
scalar LoRaNetworkTest.nsRouter.eth[0].mac droppedPkIfaceDown:count 0
attr interpolationmode none
attr source dropPkIfaceDown
attr title "packets dropped/interface down, count"
scalar LoRaNetworkTest.nsRouter.eth[0].mac droppedPkIfaceDown:sum(packetBytes) 0
attr interpolationmode none
attr source dropPkIfaceDown
attr title "packets dropped/interface down, sum(packetBytes)"
scalar LoRaNetworkTest.nsRouter.eth[0].mac rxPkOk:count 2883
attr interpolationmode none
attr source rxPkOk
attr title "packets received OK, count"
scalar LoRaNetworkTest.nsRouter.eth[0].mac rxPkOk:sum(packetBytes) 184512
attr interpolationmode none
attr source rxPkOk
attr title "packets received OK, sum(packetBytes)"
scalar LoRaNetworkTest.nsRouter.eth[0].mac passedUpPk:count 2883
attr interpolationmode none
attr source packetSentToUpper
attr title "packets passed to higher layer, count"
scalar LoRaNetworkTest.nsRouter.eth[0].mac passedUpPk:sum(packetBytes) 184512
attr interpolationmode none
attr source packetSentToUpper
attr title "packets passed to higher layer, sum(packetBytes)"
scalar LoRaNetworkTest.nsRouter.eth[0].encap pauseSent:count 0
attr title "pause sent, count"
scalar LoRaNetworkTest.nsRouter.eth[0].encap pauseSent:sum 0
attr title "pause sent, sum"
scalar LoRaNetworkTest.nsRouter.eth[0].encap decapPk:count 2883
attr interpolationmode none
attr source decapPk
attr title "packets decapsulated, count"
scalar LoRaNetworkTest.nsRouter.eth[0].encap decapPk:sum(packetBytes) 80724
attr interpolationmode none
attr source decapPk
attr title "packets decapsulated, sum(packetBytes)"
scalar LoRaNetworkTest.nsRouter.eth[0].encap encapPk:count 10091
attr interpolationmode none
attr source encapPk
attr title "packets encapsulated, count"
scalar LoRaNetworkTest.nsRouter.eth[0].encap encapPk:sum(packetBytes) 340212
attr interpolationmode none
attr source encapPk
attr title "packets encapsulated, sum(packetBytes)"
scalar LoRaNetworkTest.nsRouter.ppp[0].queue queueLength:max nan
attr interpolationmode sample-hold
attr title "queue length, max"
scalar LoRaNetworkTest.nsRouter.ppp[0].queue queueLength:timeavg nan
attr interpolationmode sample-hold
attr title "queue length, timeavg"
statistic LoRaNetworkTest.nsRouter.ppp[0].queue queueingTime:histogram
field count 0
field mean nan
field stddev nan
field min nan
field max nan
field sum 0
field sqrsum 0
attr interpolationmode none
attr title "queueing time, histogram"
bin	-inf	0
bin	-0.5	0
bin	-0.46666666666667	0
bin	-0.43333333333333	0
bin	-0.4	0
bin	-0.36666666666667	0
bin	-0.33333333333333	0
bin	-0.3	0
bin	-0.26666666666667	0
bin	-0.23333333333333	0
bin	-0.2	0
bin	-0.16666666666667	0
bin	-0.13333333333333	0
bin	-0.1	0
bin	-0.066666666666667	0
bin	-0.033333333333333	0
bin	-6.9388939039072e-018	0
bin	0.033333333333333	0
bin	0.066666666666667	0
bin	0.1	0
bin	0.13333333333333	0
bin	0.16666666666667	0
bin	0.2	0
bin	0.23333333333333	0
bin	0.26666666666667	0
bin	0.3	0
bin	0.33333333333333	0
bin	0.36666666666667	0
bin	0.4	0
bin	0.43333333333333	0
bin	0.46666666666667	0
bin	0.5	0
scalar LoRaNetworkTest.nsRouter.ppp[0].queue dropPk:count 0
attr interpolationmode none
attr source dropPkByQueue
attr title "dropped packets, count"
scalar LoRaNetworkTest.nsRouter.ppp[0].queue dropPk:sum(packetBytes) 0
attr interpolationmode none
attr source dropPkByQueue
attr title "dropped packets, sum(packetBytes)"
scalar LoRaNetworkTest.nsRouter.ppp[0].queue rcvdPk:count 0
attr interpolationmode none
attr title "received packets, count"
scalar LoRaNetworkTest.nsRouter.ppp[0].queue rcvdPk:sum(packetBytes) 0
attr interpolationmode none
attr title "received packets, sum(packetBytes)"
scalar LoRaNetworkTest.nsRouter.ppp[0].ppp droppedPkBitError:count 0
attr interpolationmode none
attr source dropPkBitError
attr title "packets dropped/bit error, count"
scalar LoRaNetworkTest.nsRouter.ppp[0].ppp droppedPkBitError:sum(packetBytes) 0
attr interpolationmode none
attr source dropPkBitError
attr title "packets dropped/bit error, sum(packetBytes)"
scalar LoRaNetworkTest.nsRouter.ppp[0].ppp droppedPkIfaceDown:count 0
attr interpolationmode none
attr source dropPkIfaceDown
attr title "packets dropped/interface down, count"
scalar LoRaNetworkTest.nsRouter.ppp[0].ppp droppedPkIfaceDown:sum(packetBytes) 0
attr interpolationmode none
attr source dropPkIfaceDown
attr title "packets dropped/interface down, sum(packetBytes)"
scalar LoRaNetworkTest.nsRouter.ppp[0].ppp rxPkOk:count 7208
attr interpolationmode none
attr source rxPkOk
attr title "packets received OK, count"
scalar LoRaNetworkTest.nsRouter.ppp[0].ppp rxPkOk:sum(packetBytes) 309944
attr interpolationmode none
attr source rxPkOk
attr title "packets received OK, sum(packetBytes)"
scalar LoRaNetworkTest.nsRouter.ppp[0].ppp txState:timeavg nan
attr interpolationmode sample-hold
attr title "tx state, timeavg"
scalar LoRaNetworkTest.nsRouter.ppp[0].ppp rcvdPkFromHL:count 0
attr interpolationmode none
attr source packetReceivedFromUpper
attr title "packets received from higher layer, count"
scalar LoRaNetworkTest.nsRouter.ppp[0].ppp rcvdPkFromHL:sum(packetBytes) 0
attr interpolationmode none
attr source packetReceivedFromUpper
attr title "packets received from higher layer, sum(packetBytes)"
scalar LoRaNetworkTest.nsRouter.ppp[0].ppp passedUpPk:count 7208
attr interpolationmode none
attr source packetSentToUpper
attr title "packets passed to higher layer, count"
scalar LoRaNetworkTest.nsRouter.ppp[0].ppp passedUpPk:sum(packetBytes) 259488
attr interpolationmode none
attr source packetSentToUpper
attr title "packets passed to higher layer, sum(packetBytes)"
scalar LoRaNetworkTest.nsRouter.ppp[0].ppp txPk:count 0
attr interpolationmode none
attr source packetSentToLower
attr title "packets transmitted, count"
scalar LoRaNetworkTest.nsRouter.ppp[0].ppp txPk:sum(packetBytes) 0
attr interpolationmode none
attr source packetSentToLower
attr title "packets transmitted, sum(packetBytes)"

